
*** ChampSim Multicore Out-of-Order Simulator ***

Warmup Instructions: 25000000
Simulation Instructions: 100000000
Number of CPUs: 1
LLC sets: 2048
LLC ways: 16
Off-chip DRAM Size: 4096 MB Channels: 1 Width: 64-bit Data Rate: 6400 MT/s
CPU 0 runs ./server_037.champsimtrace.xz
AAAAA
.xz
./server_037.champsimtrace.xz 0
ABDUBDIBDIBDIBD
0x31ef8f20
CPU 0 runs ./server_038.champsimtrace.xz
AAAAA
.xz
./server_038.champsimtrace.xz 1
0x31ef91c0
CPU 0 runs ./server_039.champsimtrace.xz
AAAAA
.xz
./server_039.champsimtrace.xz 2
0x31ef9460
CPU 0 runs ./server_034.champsimtrace.xz
AAAAA
.xz
./server_034.champsimtrace.xz 3
0x31ef9700
CPU 0 runs ./server_033.champsimtrace.xz
AAAAA
.xz
./server_033.champsimtrace.xz 4
0x31ef9bf0
CPU 0 runs ./server_032.champsimtrace.xz
AAAAA
.xz
./server_032.champsimtrace.xz 5
0x31efa2b0
CPU 0 runs ./server_031.champsimtrace.xz
AAAAA
.xz
./server_031.champsimtrace.xz 6
0x31efa970
CPU 0 runs ./server_030.champsimtrace.xz
AAAAA
.xz
./server_030.champsimtrace.xz 7
0x31efb030
CPU 0 Bimodal branch predictor
BTB has LRU replacement policy
ITLB has LRU replacement policy
DTLB has LRU replacement policy
STLB has LRU replacement policy
L1I has LRU replacement policy
L1D has LRU replacement policy
L2C has LRU replacement policy
LLC has LRU replacement policy
Heartbeat CPU 0 instructions: 10000002 cycles: 2774188 heartbeat IPC: 3.60466 cumulative IPC: 3.60466 (Simulation time: 0 hr 0 min 44 sec) 
Heartbeat CPU 0 instructions: 20000001 cycles: 5546709 heartbeat IPC: 3.60683 cumulative IPC: 3.60574 (Simulation time: 0 hr 1 min 16 sec) 

Warmup complete CPU 0 instructions: 25000003 cycles: 6938902 (Simulation time: 0 hr 1 min 33 sec) 

Before Swap:
Trace File 1: 0x31efacd0
Trace File 2: 0x31ef91c0
Gunzip Command 1: xz -dc ./server_037.champsimtrace.xz
Gunzip Command 2: xz -dc ./server_038.champsimtrace.xz
0x31ef91c0 : 1 curr: 0
0x31efacd0 : 0
After Swap:
Trace File 1: 0x31ef91c0
Trace File 2: 0x31ef9460
Gunzip Command 1: xz -dc ./server_038.champsimtrace.xz
Gunzip Command 2: xz -dc ./server_039.champsimtrace.xz
Successfully read from the swapped trace file.
again: 0
2000018 check cycles 
Trace 0: 0 0 0 0 0 0 
Trace 1: 25883 33040 48468 65072 84418 101197 
Trace 2: 0 0 0 0 0 0 
Trace 3: 0 0 0 0 0 0 
Trace 4: 0 0 0 0 0 0 
Trace 5: 0 0 0 0 0 0 
Trace 6: 0 0 0 0 0 0 
Trace 7: 0 0 0 0 0 0 
Best Partition: 16 512 16 16 16 64 128 256 
2000006 check cycles 
Trace 0: 0 0 0 0 0 0 
Trace 1: 66931 84495 122338 161715 208698 249672 
Trace 2: 0 0 0 0 0 0 
Trace 3: 0 0 0 0 0 0 
Trace 4: 0 0 0 0 0 0 
Trace 5: 0 0 0 0 0 0 
Trace 6: 0 0 0 0 0 0 
Trace 7: 0 0 0 0 0 0 
Best Partition: 16 512 16 16 16 64 128 256 
2000133 check cycles 
Trace 0: 0 0 0 0 0 0 
Trace 1: 105438 133630 193932 255647 329974 395246 
Trace 2: 0 0 0 0 0 0 
Trace 3: 0 0 0 0 0 0 
Trace 4: 0 0 0 0 0 0 
Trace 5: 0 0 0 0 0 0 
Trace 6: 0 0 0 0 0 0 
Trace 7: 0 0 0 0 0 0 
Best Partition: 16 512 16 16 16 64 128 256 
2000012 check cycles 
Trace 0: 0 0 0 0 0 0 
Trace 1: 142201 180510 262035 349140 455805 546294 
Trace 2: 0 0 0 0 0 0 
Trace 3: 0 0 0 0 0 0 
Trace 4: 0 0 0 0 0 0 
Trace 5: 0 0 0 0 0 0 
Trace 6: 0 0 0 0 0 0 
Trace 7: 0 0 0 0 0 0 
Best Partition: 16 512 16 16 16 64 128 256 
2000006 check cycles 
Trace 0: 0 0 0 0 0 0 
Trace 1: 180189 228784 332439 443970 580494 695814 
Trace 2: 0 0 0 0 0 0 
Trace 3: 0 0 0 0 0 0 
Trace 4: 0 0 0 0 0 0 
Trace 5: 0 0 0 0 0 0 
Trace 6: 0 0 0 0 0 0 
Trace 7: 0 0 0 0 0 0 
Best Partition: 16 512 16 16 16 64 128 256 
2000001 check cycles 
Trace 0: 0 0 0 0 0 0 
Trace 1: 218257 277342 403706 538623 703524 843668 
Trace 2: 0 0 0 0 0 0 
Trace 3: 0 0 0 0 0 0 
Trace 4: 0 0 0 0 0 0 
Trace 5: 0 0 0 0 0 0 
Trace 6: 0 0 0 0 0 0 
Trace 7: 0 0 0 0 0 0 
Best Partition: 16 512 16 16 16 64 128 256 
2000023 check cycles 
Trace 0: 0 0 0 0 0 0 
Trace 1: 259440 329100 478256 636285 829122 993911 
Trace 2: 0 0 0 0 0 0 
Trace 3: 0 0 0 0 0 0 
Trace 4: 0 0 0 0 0 0 
Trace 5: 0 0 0 0 0 0 
Trace 6: 0 0 0 0 0 0 
Trace 7: 0 0 0 0 0 0 
Best Partition: 16 512 16 16 16 64 128 256 
2000022 check cycles 
Trace 0: 0 0 0 0 0 0 
Trace 1: 298041 378320 550399 732338 953925 1143665 
Trace 2: 0 0 0 0 0 0 
Trace 3: 0 0 0 0 0 0 
Trace 4: 0 0 0 0 0 0 
Trace 5: 0 0 0 0 0 0 
Trace 6: 0 0 0 0 0 0 
Trace 7: 0 0 0 0 0 0 
Best Partition: 16 512 16 16 16 64 128 256 
Heartbeat CPU 0 instructions: 30000001 cycles: 23438403 heartbeat IPC: 0.558919 cumulative IPC: 0.303039 (Simulation time: 0 hr 2 min 19 sec) 
Before Swap:
Trace File 1: 0x31ef91c0
Trace File 2: 0x31efacd0
Gunzip Command 1: xz -dc ./server_038.champsimtrace.xz
Gunzip Command 2: xz -dc ./server_037.champsimtrace.xz
0x31efacd0 : 0 curr: 0
0x31ef91c0 : 1
After Swap:
Trace File 1: 0x31efacd0
Trace File 2: 0x31ef9460
Gunzip Command 1: xz -dc ./server_037.champsimtrace.xz
Gunzip Command 2: xz -dc ./server_039.champsimtrace.xz
Successfully read from the swapped trace file.
again: 5
2000006 check cycles 
Trace 0: 71032 75235 87104 98469 110721 132610 
Trace 1: 307391 390209 567686 754785 982731 1178331 
Trace 2: 0 0 0 0 0 0 
Trace 3: 0 0 0 0 0 0 
Trace 4: 0 0 0 0 0 0 
Trace 5: 0 0 0 0 0 0 
Trace 6: 0 0 0 0 0 0 
Trace 7: 0 0 0 0 0 0 
Best Partition: 256 512 16 16 16 16 64 128 
2000010 check cycles 
Trace 0: 105298 117809 149964 180410 213389 272513 
Trace 1: 307391 390209 567686 754785 982731 1178331 
Trace 2: 0 0 0 0 0 0 
Trace 3: 0 0 0 0 0 0 
Trace 4: 0 0 0 0 0 0 
Trace 5: 0 0 0 0 0 0 
Trace 6: 0 0 0 0 0 0 
Trace 7: 0 0 0 0 0 0 
Best Partition: 256 512 16 16 16 16 64 128 
2000033 check cycles 
Trace 0: 140189 160706 210853 259365 313822 398197 
Trace 1: 307391 390209 567686 754785 982731 1178331 
Trace 2: 0 0 0 0 0 0 
Trace 3: 0 0 0 0 0 0 
Trace 4: 0 0 0 0 0 0 
Trace 5: 0 0 0 0 0 0 
Trace 6: 0 0 0 0 0 0 
Trace 7: 0 0 0 0 0 0 
Best Partition: 256 512 16 16 16 16 64 128 
2000039 check cycles 
Trace 0: 169825 198482 265733 331511 407546 511832 
Trace 1: 307391 390209 567686 754785 982731 1178331 
Trace 2: 0 0 0 0 0 0 
Trace 3: 0 0 0 0 0 0 
Trace 4: 0 0 0 0 0 0 
Trace 5: 0 0 0 0 0 0 
Trace 6: 0 0 0 0 0 0 
Trace 7: 0 0 0 0 0 0 
Best Partition: 256 512 16 16 16 16 64 128 
2000017 check cycles 
Trace 0: 199487 236205 319635 401795 498460 620961 
Trace 1: 307391 390209 567686 754785 982731 1178331 
Trace 2: 0 0 0 0 0 0 
Trace 3: 0 0 0 0 0 0 
Trace 4: 0 0 0 0 0 0 
Trace 5: 0 0 0 0 0 0 
Trace 6: 0 0 0 0 0 0 
Trace 7: 0 0 0 0 0 0 
Best Partition: 256 512 16 16 16 16 64 128 
2000014 check cycles 
Trace 0: 227481 272208 372477 471781 589955 730970 
Trace 1: 307391 390209 567686 754785 982731 1178331 
Trace 2: 0 0 0 0 0 0 
Trace 3: 0 0 0 0 0 0 
Trace 4: 0 0 0 0 0 0 
Trace 5: 0 0 0 0 0 0 
Trace 6: 0 0 0 0 0 0 
Trace 7: 0 0 0 0 0 0 
Best Partition: 256 512 16 16 16 16 64 128 
2000005 check cycles 
Trace 0: 256920 309791 426637 542824 682137 841589 
Trace 1: 307391 390209 567686 754785 982731 1178331 
Trace 2: 0 0 0 0 0 0 
Trace 3: 0 0 0 0 0 0 
Trace 4: 0 0 0 0 0 0 
Trace 5: 0 0 0 0 0 0 
Trace 6: 0 0 0 0 0 0 
Trace 7: 0 0 0 0 0 0 
Best Partition: 256 512 16 16 16 16 64 128 
2000002 check cycles 
Trace 0: 284402 345026 478519 611677 772149 950058 
Trace 1: 307391 390209 567686 754785 982731 1178331 
Trace 2: 0 0 0 0 0 0 
Trace 3: 0 0 0 0 0 0 
Trace 4: 0 0 0 0 0 0 
Trace 5: 0 0 0 0 0 0 
Trace 6: 0 0 0 0 0 0 
Trace 7: 0 0 0 0 0 0 
Best Partition: 256 512 16 16 16 16 64 128 
2000004 check cycles 
Trace 0: 312656 381132 531044 680837 862191 1058488 
Trace 1: 307391 390209 567686 754785 982731 1178331 
Trace 2: 0 0 0 0 0 0 
Trace 3: 0 0 0 0 0 0 
Trace 4: 0 0 0 0 0 0 
Trace 5: 0 0 0 0 0 0 
Trace 6: 0 0 0 0 0 0 
Trace 7: 0 0 0 0 0 0 
Best Partition: 512 256 16 16 16 16 64 128 
2000026 check cycles 
Trace 0: 351429 430578 602808 775396 985235 1206320 
Trace 1: 307391 390209 567686 754785 982731 1178331 
Trace 2: 0 0 0 0 0 0 
Trace 3: 0 0 0 0 0 0 
Trace 4: 0 0 0 0 0 0 
Trace 5: 0 0 0 0 0 0 
Trace 6: 0 0 0 0 0 0 
Trace 7: 0 0 0 0 0 0 
Best Partition: 512 256 16 16 16 16 64 128 
Before Swap:
Trace File 1: 0x31efacd0
Trace File 2: 0x31efa970
Gunzip Command 1: xz -dc ./server_037.champsimtrace.xz
Gunzip Command 2: xz -dc ./server_031.champsimtrace.xz
0x31efa970 : 6 curr: 5
0x31efacd0 : 0
After Swap:
Trace File 1: 0x31efa970
Trace File 2: 0x31efb030
Gunzip Command 1: xz -dc ./server_031.champsimtrace.xz
Gunzip Command 2: xz -dc ./server_030.champsimtrace.xz
Successfully read from the swapped trace file.
again: 0
2000006 check cycles 
Trace 0: 358278 439330 615429 791828 1006551 1231985 
Trace 1: 307391 390209 567686 754785 982731 1178331 
Trace 2: 0 0 0 0 0 0 
Trace 3: 0 0 0 0 0 0 
Trace 4: 0 0 0 0 0 0 
Trace 5: 0 0 0 0 0 0 
Trace 6: 38300 47030 56031 66559 76240 86982 
Trace 7: 0 0 0 0 0 0 
Best Partition: 512 256 16 16 16 16 128 64 
2000035 check cycles 
Trace 0: 358278 439330 615429 791828 1006551 1231985 
Trace 1: 307391 390209 567686 754785 982731 1178331 
Trace 2: 0 0 0 0 0 0 
Trace 3: 0 0 0 0 0 0 
Trace 4: 0 0 0 0 0 0 
Trace 5: 0 0 0 0 0 0 
Trace 6: 112805 137856 163650 194455 222365 253671 
Trace 7: 0 0 0 0 0 0 
Best Partition: 512 256 16 16 16 16 128 64 
2000023 check cycles 
Trace 0: 358278 439330 615429 791828 1006551 1231985 
Trace 1: 307391 390209 567686 754785 982731 1178331 
Trace 2: 0 0 0 0 0 0 
Trace 3: 0 0 0 0 0 0 
Trace 4: 0 0 0 0 0 0 
Trace 5: 0 0 0 0 0 0 
Trace 6: 194144 237685 280167 330964 377688 428700 
Trace 7: 0 0 0 0 0 0 
Best Partition: 512 256 16 16 16 16 128 64 
2000017 check cycles 
Trace 0: 358278 439330 615429 791828 1006551 1231985 
Trace 1: 307391 390209 567686 754785 982731 1178331 
Trace 2: 0 0 0 0 0 0 
Trace 3: 0 0 0 0 0 0 
Trace 4: 0 0 0 0 0 0 
Trace 5: 0 0 0 0 0 0 
Trace 6: 267276 327438 387025 458708 524433 596134 
Trace 7: 0 0 0 0 0 0 
Best Partition: 512 256 16 16 16 16 128 64 
2000162 check cycles 
Trace 0: 358278 439330 615429 791828 1006551 1231985 
Trace 1: 307391 390209 567686 754785 982731 1178331 
Trace 2: 0 0 0 0 0 0 
Trace 3: 0 0 0 0 0 0 
Trace 4: 0 0 0 0 0 0 
Trace 5: 0 0 0 0 0 0 
Trace 6: 343503 420381 497119 589646 674389 766912 
Trace 7: 0 0 0 0 0 0 
Best Partition: 512 256 16 16 16 16 128 64 
2000002 check cycles 
Trace 0: 358278 439330 615429 791828 1006551 1231985 
Trace 1: 307391 390209 567686 754785 982731 1178331 
Trace 2: 0 0 0 0 0 0 
Trace 3: 0 0 0 0 0 0 
Trace 4: 0 0 0 0 0 0 
Trace 5: 0 0 0 0 0 0 
Trace 6: 418266 511624 605529 718943 822652 935977 
Trace 7: 0 0 0 0 0 0 
Best Partition: 512 256 16 16 16 16 128 64 
2000002 check cycles 
Trace 0: 358278 439330 615429 791828 1006551 1231985 
Trace 1: 307391 390209 567686 754785 982731 1178331 
Trace 2: 0 0 0 0 0 0 
Trace 3: 0 0 0 0 0 0 
Trace 4: 0 0 0 0 0 0 
Trace 5: 0 0 0 0 0 0 
Trace 6: 494006 604019 715058 849366 972041 1106135 
Trace 7: 0 0 0 0 0 0 
Best Partition: 512 256 16 16 16 16 128 64 
2000009 check cycles 
Trace 0: 358278 439330 615429 791828 1006551 1231985 
Trace 1: 307391 390209 567686 754785 982731 1178331 
Trace 2: 0 0 0 0 0 0 
Trace 3: 0 0 0 0 0 0 
Trace 4: 0 0 0 0 0 0 
Trace 5: 0 0 0 0 0 0 
Trace 6: 570479 698527 826929 982058 1123966 1279333 
Trace 7: 0 0 0 0 0 0 
Best Partition: 512 256 16 16 16 16 128 64 
2000004 check cycles 
Trace 0: 358278 439330 615429 791828 1006551 1231985 
Trace 1: 307391 390209 567686 754785 982731 1178331 
Trace 2: 0 0 0 0 0 0 
Trace 3: 0 0 0 0 0 0 
Trace 4: 0 0 0 0 0 0 
Trace 5: 0 0 0 0 0 0 
Trace 6: 660217 807008 953133 1129323 1290273 1465899 
Trace 7: 0 0 0 0 0 0 
Best Partition: 512 256 16 16 16 16 128 64 
2000032 check cycles 
Trace 0: 358278 439330 615429 791828 1006551 1231985 
Trace 1: 307391 390209 567686 754785 982731 1178331 
Trace 2: 0 0 0 0 0 0 
Trace 3: 0 0 0 0 0 0 
Trace 4: 0 0 0 0 0 0 
Trace 5: 0 0 0 0 0 0 
Trace 6: 737960 901553 1064955 1262160 1442119 1638891 
Trace 7: 0 0 0 0 0 0 
Best Partition: 512 256 16 16 16 16 128 64 
2000018 check cycles 
Trace 0: 358278 439330 615429 791828 1006551 1231985 
Trace 1: 307391 390209 567686 754785 982731 1178331 
Trace 2: 0 0 0 0 0 0 
Trace 3: 0 0 0 0 0 0 
Trace 4: 0 0 0 0 0 0 
Trace 5: 0 0 0 0 0 0 
Trace 6: 812690 993391 1174411 1393095 1592225 1810040 
Trace 7: 0 0 0 0 0 0 
Best Partition: 512 256 16 16 16 16 128 64 
Heartbeat CPU 0 instructions: 40000000 cycles: 66844462 heartbeat IPC: 0.230383 cumulative IPC: 0.250394 (Simulation time: 0 hr 3 min 57 sec) 
Before Swap:
Trace File 1: 0x31efa970
Trace File 2: 0x31ef91c0
Gunzip Command 1: xz -dc ./server_031.champsimtrace.xz
Gunzip Command 2: xz -dc ./server_038.champsimtrace.xz
0x31ef91c0 : 1 curr: 0
0x31efa970 : 6
After Swap:
Trace File 1: 0x31ef91c0
Trace File 2: 0x31ef9460
Gunzip Command 1: xz -dc ./server_038.champsimtrace.xz
Gunzip Command 2: xz -dc ./server_039.champsimtrace.xz
Successfully read from the swapped trace file.
again: 2
2000072 check cycles 
Trace 0: 358278 439330 615429 791828 1006551 1231985 
Trace 1: 307984 391027 569020 756629 985191 1181257 
Trace 2: 0 0 0 0 0 0 
Trace 3: 0 0 0 0 0 0 
Trace 4: 0 0 0 0 0 0 
Trace 5: 0 0 0 0 0 0 
Trace 6: 880912 1077026 1274429 1513070 1730723 1968483 
Trace 7: 0 0 0 0 0 0 
Best Partition: 128 256 16 16 16 16 512 64 
2000030 check cycles 
Trace 0: 358278 439330 615429 791828 1006551 1231985 
Trace 1: 334656 425037 618625 822573 1070885 1284272 
Trace 2: 0 0 0 0 0 0 
Trace 3: 0 0 0 0 0 0 
Trace 4: 0 0 0 0 0 0 
Trace 5: 0 0 0 0 0 0 
Trace 6: 880912 1077026 1274429 1513070 1730723 1968483 
Trace 7: 0 0 0 0 0 0 
Best Partition: 128 256 16 16 16 16 512 64 
2000033 check cycles 
Trace 0: 358278 439330 615429 791828 1006551 1231985 
Trace 1: 361774 459629 669337 889336 1157348 1388232 
Trace 2: 0 0 0 0 0 0 
Trace 3: 0 0 0 0 0 0 
Trace 4: 0 0 0 0 0 0 
Trace 5: 0 0 0 0 0 0 
Trace 6: 880912 1077026 1274429 1513070 1730723 1968483 
Trace 7: 0 0 0 0 0 0 
Best Partition: 128 256 16 16 16 16 512 64 
2000024 check cycles 
Trace 0: 358278 439330 615429 791828 1006551 1231985 
Trace 1: 389945 495573 722025 959382 1248467 1497607 
Trace 2: 0 0 0 0 0 0 
Trace 3: 0 0 0 0 0 0 
Trace 4: 0 0 0 0 0 0 
Trace 5: 0 0 0 0 0 0 
Trace 6: 880912 1077026 1274429 1513070 1730723 1968483 
Trace 7: 0 0 0 0 0 0 
Best Partition: 128 512 16 16 16 16 256 64 
2000006 check cycles 
Trace 0: 358278 439330 615429 791828 1006551 1231985 
Trace 1: 427231 543194 792033 1052374 1368878 1642161 
Trace 2: 0 0 0 0 0 0 
Trace 3: 0 0 0 0 0 0 
Trace 4: 0 0 0 0 0 0 
Trace 5: 0 0 0 0 0 0 
Trace 6: 880912 1077026 1274429 1513070 1730723 1968483 
Trace 7: 0 0 0 0 0 0 
Best Partition: 128 512 16 16 16 16 256 64 
2000009 check cycles 
Trace 0: 358278 439330 615429 791828 1006551 1231985 
Trace 1: 465534 592055 863556 1147147 1491645 1789555 
Trace 2: 0 0 0 0 0 0 
Trace 3: 0 0 0 0 0 0 
Trace 4: 0 0 0 0 0 0 
Trace 5: 0 0 0 0 0 0 
Trace 6: 880912 1077026 1274429 1513070 1730723 1968483 
Trace 7: 0 0 0 0 0 0 
Best Partition: 128 512 16 16 16 16 256 64 
2000017 check cycles 
Trace 0: 358278 439330 615429 791828 1006551 1231985 
Trace 1: 503071 640113 934121 1240551 1612860 1935379 
Trace 2: 0 0 0 0 0 0 
Trace 3: 0 0 0 0 0 0 
Trace 4: 0 0 0 0 0 0 
Trace 5: 0 0 0 0 0 0 
Trace 6: 880912 1077026 1274429 1513070 1730723 1968483 
Trace 7: 0 0 0 0 0 0 
Best Partition: 128 512 16 16 16 16 256 64 
2000050 check cycles 
Trace 0: 358278 439330 615429 791828 1006551 1231985 
Trace 1: 542607 690499 1007573 1338326 1739752 2087387 
Trace 2: 0 0 0 0 0 0 
Trace 3: 0 0 0 0 0 0 
Trace 4: 0 0 0 0 0 0 
Trace 5: 0 0 0 0 0 0 
Trace 6: 880912 1077026 1274429 1513070 1730723 1968483 
Trace 7: 0 0 0 0 0 0 
Best Partition: 128 512 16 16 16 16 256 64 
2000012 check cycles 
Trace 0: 358278 439330 615429 791828 1006551 1231985 
Trace 1: 580309 738538 1078187 1432194 1861355 2233430 
Trace 2: 0 0 0 0 0 0 
Trace 3: 0 0 0 0 0 0 
Trace 4: 0 0 0 0 0 0 
Trace 5: 0 0 0 0 0 0 
Trace 6: 880912 1077026 1274429 1513070 1730723 1968483 
Trace 7: 0 0 0 0 0 0 
Best Partition: 128 512 16 16 16 16 256 64 
Before Swap:
Trace File 1: 0x31ef91c0
Trace File 2: 0x31ef9700
Gunzip Command 1: xz -dc ./server_038.champsimtrace.xz
Gunzip Command 2: xz -dc ./server_034.champsimtrace.xz
0x31ef9700 : 3 curr: 2
0x31ef91c0 : 1
After Swap:
Trace File 1: 0x31ef9700
Trace File 2: 0x31ef9bf0
Gunzip Command 1: xz -dc ./server_034.champsimtrace.xz
Gunzip Command 2: xz -dc ./server_033.champsimtrace.xz
Successfully read from the swapped trace file.
again: 5
2000112 check cycles 
Trace 0: 358278 439330 615429 791828 1006551 1231985 
Trace 1: 607700 773492 1129497 1499675 1948617 2338392 
Trace 2: 0 0 0 0 0 0 
Trace 3: 2626 3543 4926 6178 8040 9264 
Trace 4: 0 0 0 0 0 0 
Trace 5: 0 0 0 0 0 0 
Trace 6: 880912 1077026 1274429 1513070 1730723 1968483 
Trace 7: 0 0 0 0 0 0 
Best Partition: 128 512 16 64 16 16 256 16 
2000033 check cycles 
Trace 0: 358278 439330 615429 791828 1006551 1231985 
Trace 1: 607700 773492 1129497 1499675 1948617 2338392 
Trace 2: 0 0 0 0 0 0 
Trace 3: 49733 64575 83319 103575 135441 152604 
Trace 4: 0 0 0 0 0 0 
Trace 5: 0 0 0 0 0 0 
Trace 6: 880912 1077026 1274429 1513070 1730723 1968483 
Trace 7: 0 0 0 0 0 0 
Best Partition: 128 512 16 64 16 16 256 16 
2000028 check cycles 
Trace 0: 358278 439330 615429 791828 1006551 1231985 
Trace 1: 607700 773492 1129497 1499675 1948617 2338392 
Trace 2: 0 0 0 0 0 0 
Trace 3: 99571 128730 166347 206389 269145 303935 
Trace 4: 0 0 0 0 0 0 
Trace 5: 0 0 0 0 0 0 
Trace 6: 880912 1077026 1274429 1513070 1730723 1968483 
Trace 7: 0 0 0 0 0 0 
Best Partition: 128 512 16 64 16 16 256 16 
2000003 check cycles 
Trace 0: 358278 439330 615429 791828 1006551 1231985 
Trace 1: 607700 773492 1129497 1499675 1948617 2338392 
Trace 2: 0 0 0 0 0 0 
Trace 3: 152123 196487 254029 315352 411307 463992 
Trace 4: 0 0 0 0 0 0 
Trace 5: 0 0 0 0 0 0 
Trace 6: 880912 1077026 1274429 1513070 1730723 1968483 
Trace 7: 0 0 0 0 0 0 
Best Partition: 128 512 16 64 16 16 256 16 
2000030 check cycles 
Trace 0: 358278 439330 615429 791828 1006551 1231985 
Trace 1: 607700 773492 1129497 1499675 1948617 2338392 
Trace 2: 0 0 0 0 0 0 
Trace 3: 205505 264677 341698 424048 553335 623918 
Trace 4: 0 0 0 0 0 0 
Trace 5: 0 0 0 0 0 0 
Trace 6: 880912 1077026 1274429 1513070 1730723 1968483 
Trace 7: 0 0 0 0 0 0 
Best Partition: 128 512 16 64 16 16 256 16 
2000013 check cycles 
Trace 0: 358278 439330 615429 791828 1006551 1231985 
Trace 1: 607700 773492 1129497 1499675 1948617 2338392 
Trace 2: 0 0 0 0 0 0 
Trace 3: 258293 332748 429675 533314 695787 784347 
Trace 4: 0 0 0 0 0 0 
Trace 5: 0 0 0 0 0 0 
Trace 6: 880912 1077026 1274429 1513070 1730723 1968483 
Trace 7: 0 0 0 0 0 0 
Best Partition: 128 512 16 64 16 16 256 16 
2000007 check cycles 
Trace 0: 358278 439330 615429 791828 1006551 1231985 
Trace 1: 607700 773492 1129497 1499675 1948617 2338392 
Trace 2: 0 0 0 0 0 0 
Trace 3: 311210 400631 517253 642668 840200 946908 
Trace 4: 0 0 0 0 0 0 
Trace 5: 0 0 0 0 0 0 
Trace 6: 880912 1077026 1274429 1513070 1730723 1968483 
Trace 7: 0 0 0 0 0 0 
Best Partition: 128 512 16 64 16 16 256 16 
2000047 check cycles 
Trace 0: 358278 439330 615429 791828 1006551 1231985 
Trace 1: 607700 773492 1129497 1499675 1948617 2338392 
Trace 2: 0 0 0 0 0 0 
Trace 3: 363899 468700 605333 752072 982842 1107540 
Trace 4: 0 0 0 0 0 0 
Trace 5: 0 0 0 0 0 0 
Trace 6: 880912 1077026 1274429 1513070 1730723 1968483 
Trace 7: 0 0 0 0 0 0 
Best Partition: 128 512 16 64 16 16 256 16 
2000016 check cycles 
Trace 0: 358278 439330 615429 791828 1006551 1231985 
Trace 1: 607700 773492 1129497 1499675 1948617 2338392 
Trace 2: 0 0 0 0 0 0 
Trace 3: 417167 537103 693714 861758 1126047 1268844 
Trace 4: 0 0 0 0 0 0 
Trace 5: 0 0 0 0 0 0 
Trace 6: 880912 1077026 1274429 1513070 1730723 1968483 
Trace 7: 0 0 0 0 0 0 
Best Partition: 64 512 16 256 16 16 128 16 
2000001 check cycles 
Trace 0: 358278 439330 615429 791828 1006551 1231985 
Trace 1: 607700 773492 1129497 1499675 1948617 2338392 
Trace 2: 0 0 0 0 0 0 
Trace 3: 472318 607957 785216 975203 1273501 1435052 
Trace 4: 0 0 0 0 0 0 
Trace 5: 0 0 0 0 0 0 
Trace 6: 880912 1077026 1274429 1513070 1730723 1968483 
Trace 7: 0 0 0 0 0 0 
Best Partition: 64 512 16 256 16 16 128 16 
2000028 check cycles 
Trace 0: 358278 439330 615429 791828 1006551 1231985 
Trace 1: 607700 773492 1129497 1499675 1948617 2338392 
Trace 2: 0 0 0 0 0 0 
Trace 3: 527015 678451 876344 1088562 1422235 1603100 
Trace 4: 0 0 0 0 0 0 
Trace 5: 0 0 0 0 0 0 
Trace 6: 880912 1077026 1274429 1513070 1730723 1968483 
Trace 7: 0 0 0 0 0 0 
Best Partition: 64 512 16 256 16 16 128 16 
2000004 check cycles 
Trace 0: 358278 439330 615429 791828 1006551 1231985 
Trace 1: 607700 773492 1129497 1499675 1948617 2338392 
Trace 2: 0 0 0 0 0 0 
Trace 3: 582602 750227 968688 1203293 1572297 1771979 
Trace 4: 0 0 0 0 0 0 
Trace 5: 0 0 0 0 0 0 
Trace 6: 880912 1077026 1274429 1513070 1730723 1968483 
Trace 7: 0 0 0 0 0 0 
Best Partition: 64 512 16 256 16 16 128 16 
Heartbeat CPU 0 instructions: 50000000 cycles: 106950832 heartbeat IPC: 0.249337 cumulative IPC: 0.24997 (Simulation time: 0 hr 5 min 20 sec) 
Before Swap:
Trace File 1: 0x31ef9700
Trace File 2: 0x31efacd0
Gunzip Command 1: xz -dc ./server_034.champsimtrace.xz
Gunzip Command 2: xz -dc ./server_037.champsimtrace.xz
0x31efacd0 : 0 curr: 5
0x31ef9700 : 3
After Swap:
Trace File 1: 0x31efacd0
Trace File 2: 0x31efb030
Gunzip Command 1: xz -dc ./server_037.champsimtrace.xz
Gunzip Command 2: xz -dc ./server_030.champsimtrace.xz
Successfully read from the swapped trace file.
again: 6
2000013 check cycles 
Trace 0: 382664 470440 660486 851036 1083425 1324395 
Trace 1: 607700 773492 1129497 1499675 1948617 2338392 
Trace 2: 0 0 0 0 0 0 
Trace 3: 583103 750819 969353 1203999 1573108 1772851 
Trace 4: 0 0 0 0 0 0 
Trace 5: 0 0 0 0 0 0 
Trace 6: 880912 1077026 1274429 1513070 1730723 1968483 
Trace 7: 0 0 0 0 0 0 
Best Partition: 64 512 16 256 16 16 128 16 
2000027 check cycles 
Trace 0: 412322 507290 712080 917726 1169003 1426161 
Trace 1: 607700 773492 1129497 1499675 1948617 2338392 
Trace 2: 0 0 0 0 0 0 
Trace 3: 583103 750819 969353 1203999 1573108 1772851 
Trace 4: 0 0 0 0 0 0 
Trace 5: 0 0 0 0 0 0 
Trace 6: 880912 1077026 1274429 1513070 1730723 1968483 
Trace 7: 0 0 0 0 0 0 
Best Partition: 64 512 16 256 16 16 128 16 
2000028 check cycles 
Trace 0: 441271 543310 762820 983286 1253087 1526655 
Trace 1: 607700 773492 1129497 1499675 1948617 2338392 
Trace 2: 0 0 0 0 0 0 
Trace 3: 583103 750819 969353 1203999 1573108 1772851 
Trace 4: 0 0 0 0 0 0 
Trace 5: 0 0 0 0 0 0 
Trace 6: 880912 1077026 1274429 1513070 1730723 1968483 
Trace 7: 0 0 0 0 0 0 
Best Partition: 64 512 16 256 16 16 128 16 
2000009 check cycles 
Trace 0: 466936 576080 810734 1046995 1336108 1626145 
Trace 1: 607700 773492 1129497 1499675 1948617 2338392 
Trace 2: 0 0 0 0 0 0 
Trace 3: 583103 750819 969353 1203999 1573108 1772851 
Trace 4: 0 0 0 0 0 0 
Trace 5: 0 0 0 0 0 0 
Trace 6: 880912 1077026 1274429 1513070 1730723 1968483 
Trace 7: 0 0 0 0 0 0 
Best Partition: 64 512 16 256 16 16 128 16 
2000015 check cycles 
Trace 0: 491850 608083 857699 1109110 1417175 1723708 
Trace 1: 607700 773492 1129497 1499675 1948617 2338392 
Trace 2: 0 0 0 0 0 0 
Trace 3: 583103 750819 969353 1203999 1573108 1772851 
Trace 4: 0 0 0 0 0 0 
Trace 5: 0 0 0 0 0 0 
Trace 6: 880912 1077026 1274429 1513070 1730723 1968483 
Trace 7: 0 0 0 0 0 0 
Best Partition: 128 512 16 256 16 16 64 16 
2000025 check cycles 
Trace 0: 517946 641361 905970 1172668 1499833 1823175 
Trace 1: 607700 773492 1129497 1499675 1948617 2338392 
Trace 2: 0 0 0 0 0 0 
Trace 3: 583103 750819 969353 1203999 1573108 1772851 
Trace 4: 0 0 0 0 0 0 
Trace 5: 0 0 0 0 0 0 
Trace 6: 880912 1077026 1274429 1513070 1730723 1968483 
Trace 7: 0 0 0 0 0 0 
Best Partition: 128 512 16 256 16 16 64 16 
2000020 check cycles 
Trace 0: 544429 674921 954856 1238157 1584977 1924976 
Trace 1: 607700 773492 1129497 1499675 1948617 2338392 
Trace 2: 0 0 0 0 0 0 
Trace 3: 583103 750819 969353 1203999 1573108 1772851 
Trace 4: 0 0 0 0 0 0 
Trace 5: 0 0 0 0 0 0 
Trace 6: 880912 1077026 1274429 1513070 1730723 1968483 
Trace 7: 0 0 0 0 0 0 
Best Partition: 128 512 16 256 16 16 64 16 
2000001 check cycles 
Trace 0: 570579 708377 1003883 1303759 1670470 2027418 
Trace 1: 607700 773492 1129497 1499675 1948617 2338392 
Trace 2: 0 0 0 0 0 0 
Trace 3: 583103 750819 969353 1203999 1573108 1772851 
Trace 4: 0 0 0 0 0 0 
Trace 5: 0 0 0 0 0 0 
Trace 6: 880912 1077026 1274429 1513070 1730723 1968483 
Trace 7: 0 0 0 0 0 0 
Best Partition: 256 512 16 64 16 16 128 16 
2000051 check cycles 
Trace 0: 599803 745485 1057458 1374495 1762312 2137494 
Trace 1: 607700 773492 1129497 1499675 1948617 2338392 
Trace 2: 0 0 0 0 0 0 
Trace 3: 583103 750819 969353 1203999 1573108 1772851 
Trace 4: 0 0 0 0 0 0 
Trace 5: 0 0 0 0 0 0 
Trace 6: 880912 1077026 1274429 1513070 1730723 1968483 
Trace 7: 0 0 0 0 0 0 
Best Partition: 256 512 16 64 16 16 128 16 
2000025 check cycles 
Trace 0: 628039 781482 1110042 1444616 1853549 2247048 
Trace 1: 607700 773492 1129497 1499675 1948617 2338392 
Trace 2: 0 0 0 0 0 0 
Trace 3: 583103 750819 969353 1203999 1573108 1772851 
Trace 4: 0 0 0 0 0 0 
Trace 5: 0 0 0 0 0 0 
Trace 6: 880912 1077026 1274429 1513070 1730723 1968483 
Trace 7: 0 0 0 0 0 0 
Best Partition: 512 256 16 64 16 16 128 16 
2000026 check cycles 
Trace 0: 666198 830245 1181261 1538993 1976532 2394783 
Trace 1: 607700 773492 1129497 1499675 1948617 2338392 
Trace 2: 0 0 0 0 0 0 
Trace 3: 583103 750819 969353 1203999 1573108 1772851 
Trace 4: 0 0 0 0 0 0 
Trace 5: 0 0 0 0 0 0 
Trace 6: 880912 1077026 1274429 1513070 1730723 1968483 
Trace 7: 0 0 0 0 0 0 
Best Partition: 512 256 16 64 16 16 128 16 
Before Swap:
Trace File 1: 0x31efacd0
Trace File 2: 0x31efb030
Gunzip Command 1: xz -dc ./server_037.champsimtrace.xz
Gunzip Command 2: xz -dc ./server_030.champsimtrace.xz
0x31efb030 : 7 curr: 6
0x31efacd0 : 0
After Swap:
Trace File 1: 0x31efb030
Trace File 2: 0x31efa970
Gunzip Command 1: xz -dc ./server_030.champsimtrace.xz
Gunzip Command 2: xz -dc ./server_031.champsimtrace.xz
Successfully read from the swapped trace file.
again: 5
2000014 check cycles 
Trace 0: 669251 834138 1186977 1546749 1986591 2406723 
Trace 1: 607700 773492 1129497 1499675 1948617 2338392 
Trace 2: 0 0 0 0 0 0 
Trace 3: 583103 750819 969353 1203999 1573108 1772851 
Trace 4: 0 0 0 0 0 0 
Trace 5: 0 0 0 0 0 0 
Trace 6: 880912 1077026 1274429 1513070 1730723 1968483 
Trace 7: 58137 69505 81975 97801 111765 126143 
Best Partition: 512 256 16 64 16 16 128 16 
2000082 check cycles 
Trace 0: 669251 834138 1186977 1546749 1986591 2406723 
Trace 1: 607700 773492 1129497 1499675 1948617 2338392 
Trace 2: 0 0 0 0 0 0 
Trace 3: 583103 750819 969353 1203999 1573108 1772851 
Trace 4: 0 0 0 0 0 0 
Trace 5: 0 0 0 0 0 0 
Trace 6: 880912 1077026 1274429 1513070 1730723 1968483 
Trace 7: 126837 152183 181221 217315 248909 281333 
Best Partition: 512 256 16 64 16 16 128 16 
2000027 check cycles 
Trace 0: 669251 834138 1186977 1546749 1986591 2406723 
Trace 1: 607700 773492 1129497 1499675 1948617 2338392 
Trace 2: 0 0 0 0 0 0 
Trace 3: 583103 750819 969353 1203999 1573108 1772851 
Trace 4: 0 0 0 0 0 0 
Trace 5: 0 0 0 0 0 0 
Trace 6: 880912 1077026 1274429 1513070 1730723 1968483 
Trace 7: 211354 253212 299002 355061 404440 455117 
Best Partition: 512 256 16 64 16 16 128 16 
2000014 check cycles 
Trace 0: 669251 834138 1186977 1546749 1986591 2406723 
Trace 1: 607700 773492 1129497 1499675 1948617 2338392 
Trace 2: 0 0 0 0 0 0 
Trace 3: 583103 750819 969353 1203999 1573108 1772851 
Trace 4: 0 0 0 0 0 0 
Trace 5: 0 0 0 0 0 0 
Trace 6: 880912 1077026 1274429 1513070 1730723 1968483 
Trace 7: 286639 343584 405673 482100 549066 618443 
Best Partition: 512 256 16 64 16 16 128 16 
2000012 check cycles 
Trace 0: 669251 834138 1186977 1546749 1986591 2406723 
Trace 1: 607700 773492 1129497 1499675 1948617 2338392 
Trace 2: 0 0 0 0 0 0 
Trace 3: 583103 750819 969353 1203999 1573108 1772851 
Trace 4: 0 0 0 0 0 0 
Trace 5: 0 0 0 0 0 0 
Trace 6: 880912 1077026 1274429 1513070 1730723 1968483 
Trace 7: 359025 430195 508495 606065 691903 780189 
Best Partition: 512 256 16 64 16 16 128 16 
2000188 check cycles 
Trace 0: 669251 834138 1186977 1546749 1986591 2406723 
Trace 1: 607700 773492 1129497 1499675 1948617 2338392 
Trace 2: 0 0 0 0 0 0 
Trace 3: 583103 750819 969353 1203999 1573108 1772851 
Trace 4: 0 0 0 0 0 0 
Trace 5: 0 0 0 0 0 0 
Trace 6: 880912 1077026 1274429 1513070 1730723 1968483 
Trace 7: 447373 536030 633521 752836 857521 965018 
Best Partition: 512 256 16 64 16 16 128 16 
2000034 check cycles 
Trace 0: 669251 834138 1186977 1546749 1986591 2406723 
Trace 1: 607700 773492 1129497 1499675 1948617 2338392 
Trace 2: 0 0 0 0 0 0 
Trace 3: 583103 750819 969353 1203999 1573108 1772851 
Trace 4: 0 0 0 0 0 0 
Trace 5: 0 0 0 0 0 0 
Trace 6: 880912 1077026 1274429 1513070 1730723 1968483 
Trace 7: 522980 626741 740730 880632 1003162 1129680 
Best Partition: 512 256 16 64 16 16 128 16 
2000024 check cycles 
Trace 0: 669251 834138 1186977 1546749 1986591 2406723 
Trace 1: 607700 773492 1129497 1499675 1948617 2338392 
Trace 2: 0 0 0 0 0 0 
Trace 3: 583103 750819 969353 1203999 1573108 1772851 
Trace 4: 0 0 0 0 0 0 
Trace 5: 0 0 0 0 0 0 
Trace 6: 880912 1077026 1274429 1513070 1730723 1968483 
Trace 7: 600222 718758 849188 1010192 1151315 1297266 
Best Partition: 512 256 16 64 16 16 128 16 
2000006 check cycles 
Trace 0: 669251 834138 1186977 1546749 1986591 2406723 
Trace 1: 607700 773492 1129497 1499675 1948617 2338392 
Trace 2: 0 0 0 0 0 0 
Trace 3: 583103 750819 969353 1203999 1573108 1772851 
Trace 4: 0 0 0 0 0 0 
Trace 5: 0 0 0 0 0 0 
Trace 6: 880912 1077026 1274429 1513070 1730723 1968483 
Trace 7: 686323 822554 972511 1155707 1315806 1481010 
Best Partition: 512 256 16 64 16 16 128 16 
2000015 check cycles 
Trace 0: 669251 834138 1186977 1546749 1986591 2406723 
Trace 1: 607700 773492 1129497 1499675 1948617 2338392 
Trace 2: 0 0 0 0 0 0 
Trace 3: 583103 750819 969353 1203999 1573108 1772851 
Trace 4: 0 0 0 0 0 0 
Trace 5: 0 0 0 0 0 0 
Trace 6: 880912 1077026 1274429 1513070 1730723 1968483 
Trace 7: 759434 909858 1076132 1280422 1459248 1643668 
Best Partition: 512 256 16 64 16 16 128 16 
2000015 check cycles 
Trace 0: 669251 834138 1186977 1546749 1986591 2406723 
Trace 1: 607700 773492 1129497 1499675 1948617 2338392 
Trace 2: 0 0 0 0 0 0 
Trace 3: 583103 750819 969353 1203999 1573108 1772851 
Trace 4: 0 0 0 0 0 0 
Trace 5: 0 0 0 0 0 0 
Trace 6: 880912 1077026 1274429 1513070 1730723 1968483 
Trace 7: 838010 1003887 1186623 1411414 1608071 1811563 
Best Partition: 512 256 16 64 16 16 128 16 
2000003 check cycles 
Trace 0: 669251 834138 1186977 1546749 1986591 2406723 
Trace 1: 607700 773492 1129497 1499675 1948617 2338392 
Trace 2: 0 0 0 0 0 0 
Trace 3: 583103 750819 969353 1203999 1573108 1772851 
Trace 4: 0 0 0 0 0 0 
Trace 5: 0 0 0 0 0 0 
Trace 6: 880912 1077026 1274429 1513070 1730723 1968483 
Trace 7: 915024 1095543 1294806 1540923 1756479 1979293 
Best Partition: 512 256 16 16 16 16 64 128 
Heartbeat CPU 0 instructions: 60000002 cycles: 153662291 heartbeat IPC: 0.21408 cumulative IPC: 0.238544 (Simulation time: 0 hr 6 min 41 sec) 
Before Swap:
Trace File 1: 0x31efb030
Trace File 2: 0x31ef9700
Gunzip Command 1: xz -dc ./server_030.champsimtrace.xz
Gunzip Command 2: xz -dc ./server_034.champsimtrace.xz
0x31ef9700 : 3 curr: 5
0x31efb030 : 7
After Swap:
Trace File 1: 0x31ef9700
Trace File 2: 0x31efacd0
Gunzip Command 1: xz -dc ./server_034.champsimtrace.xz
Gunzip Command 2: xz -dc ./server_037.champsimtrace.xz
Successfully read from the swapped trace file.
again: 5
2000019 check cycles 
Trace 0: 669251 834138 1186977 1546749 1986591 2406723 
Trace 1: 607700 773492 1129497 1499675 1948617 2338392 
Trace 2: 0 0 0 0 0 0 
Trace 3: 608661 783665 1011885 1256437 1640480 1849012 
Trace 4: 0 0 0 0 0 0 
Trace 5: 0 0 0 0 0 0 
Trace 6: 880912 1077026 1274429 1513070 1730723 1968483 
Trace 7: 944372 1131020 1336816 1590824 1813133 2043434 
Best Partition: 512 256 16 64 16 16 16 128 
2000001 check cycles 
Trace 0: 669251 834138 1186977 1546749 1986591 2406723 
Trace 1: 607700 773492 1129497 1499675 1948617 2338392 
Trace 2: 0 0 0 0 0 0 
Trace 3: 661434 851383 1099217 1365463 1784356 2011051 
Trace 4: 0 0 0 0 0 0 
Trace 5: 0 0 0 0 0 0 
Trace 6: 880912 1077026 1274429 1513070 1730723 1968483 
Trace 7: 944372 1131020 1336816 1590824 1813133 2043434 
Best Partition: 512 256 16 128 16 16 64 16 
2000015 check cycles 
Trace 0: 669251 834138 1186977 1546749 1986591 2406723 
Trace 1: 607700 773492 1129497 1499675 1948617 2338392 
Trace 2: 0 0 0 0 0 0 
Trace 3: 715474 921239 1189970 1478042 1930636 2176021 
Trace 4: 0 0 0 0 0 0 
Trace 5: 0 0 0 0 0 0 
Trace 6: 880912 1077026 1274429 1513070 1730723 1968483 
Trace 7: 944372 1131020 1336816 1590824 1813133 2043434 
Best Partition: 512 128 16 256 16 16 64 16 
2000037 check cycles 
Trace 0: 669251 834138 1186977 1546749 1986591 2406723 
Trace 1: 607700 773492 1129497 1499675 1948617 2338392 
Trace 2: 0 0 0 0 0 0 
Trace 3: 771648 993606 1283381 1594220 2082515 2346658 
Trace 4: 0 0 0 0 0 0 
Trace 5: 0 0 0 0 0 0 
Trace 6: 880912 1077026 1274429 1513070 1730723 1968483 
Trace 7: 944372 1131020 1336816 1590824 1813133 2043434 
Best Partition: 512 128 16 256 16 16 64 16 
2000016 check cycles 
Trace 0: 669251 834138 1186977 1546749 1986591 2406723 
Trace 1: 607700 773492 1129497 1499675 1948617 2338392 
Trace 2: 0 0 0 0 0 0 
Trace 3: 826758 1063999 1374014 1706364 2228354 2511223 
Trace 4: 0 0 0 0 0 0 
Trace 5: 0 0 0 0 0 0 
Trace 6: 880912 1077026 1274429 1513070 1730723 1968483 
Trace 7: 944372 1131020 1336816 1590824 1813133 2043434 
Best Partition: 512 128 16 256 16 16 64 16 
2000041 check cycles 
Trace 0: 669251 834138 1186977 1546749 1986591 2406723 
Trace 1: 607700 773492 1129497 1499675 1948617 2338392 
Trace 2: 0 0 0 0 0 0 
Trace 3: 881514 1134884 1466080 1821130 2378784 2680828 
Trace 4: 0 0 0 0 0 0 
Trace 5: 0 0 0 0 0 0 
Trace 6: 880912 1077026 1274429 1513070 1730723 1968483 
Trace 7: 944372 1131020 1336816 1590824 1813133 2043434 
Best Partition: 512 128 16 256 16 16 64 16 
2000009 check cycles 
Trace 0: 669251 834138 1186977 1546749 1986591 2406723 
Trace 1: 607700 773492 1129497 1499675 1948617 2338392 
Trace 2: 0 0 0 0 0 0 
Trace 3: 937752 1206964 1559094 1936744 2530200 2851311 
Trace 4: 0 0 0 0 0 0 
Trace 5: 0 0 0 0 0 0 
Trace 6: 880912 1077026 1274429 1513070 1730723 1968483 
Trace 7: 944372 1131020 1336816 1590824 1813133 2043434 
Best Partition: 512 128 16 256 16 16 64 16 
2000022 check cycles 
Trace 0: 669251 834138 1186977 1546749 1986591 2406723 
Trace 1: 607700 773492 1129497 1499675 1948617 2338392 
Trace 2: 0 0 0 0 0 0 
Trace 3: 993818 1279151 1652192 2052497 2681512 3021489 
Trace 4: 0 0 0 0 0 0 
Trace 5: 0 0 0 0 0 0 
Trace 6: 880912 1077026 1274429 1513070 1730723 1968483 
Trace 7: 944372 1131020 1336816 1590824 1813133 2043434 
Best Partition: 512 128 16 256 16 16 64 16 
2000008 check cycles 
Trace 0: 669251 834138 1186977 1546749 1986591 2406723 
Trace 1: 607700 773492 1129497 1499675 1948617 2338392 
Trace 2: 0 0 0 0 0 0 
Trace 3: 1048744 1349725 1743491 2165682 2828505 3187243 
Trace 4: 0 0 0 0 0 0 
Trace 5: 0 0 0 0 0 0 
Trace 6: 880912 1077026 1274429 1513070 1730723 1968483 
Trace 7: 944372 1131020 1336816 1590824 1813133 2043434 
Best Partition: 512 128 16 256 16 16 64 16 
2000027 check cycles 
Trace 0: 669251 834138 1186977 1546749 1986591 2406723 
Trace 1: 607700 773492 1129497 1499675 1948617 2338392 
Trace 2: 0 0 0 0 0 0 
Trace 3: 1103893 1420666 1835249 2279863 2978357 3356260 
Trace 4: 0 0 0 0 0 0 
Trace 5: 0 0 0 0 0 0 
Trace 6: 880912 1077026 1274429 1513070 1730723 1968483 
Trace 7: 944372 1131020 1336816 1590824 1813133 2043434 
Best Partition: 512 128 16 256 16 16 64 16 
2000006 check cycles 
Trace 0: 669251 834138 1186977 1546749 1986591 2406723 
Trace 1: 607700 773492 1129497 1499675 1948617 2338392 
Trace 2: 0 0 0 0 0 0 
Trace 3: 1160210 1493312 1929091 2396606 3130887 3527885 
Trace 4: 0 0 0 0 0 0 
Trace 5: 0 0 0 0 0 0 
Trace 6: 880912 1077026 1274429 1513070 1730723 1968483 
Trace 7: 944372 1131020 1336816 1590824 1813133 2043434 
Best Partition: 512 128 16 256 16 16 64 16 
Before Swap:
Trace File 1: 0x31ef9700
Trace File 2: 0x31efb030
Gunzip Command 1: xz -dc ./server_034.champsimtrace.xz
Gunzip Command 2: xz -dc ./server_030.champsimtrace.xz
0x31efb030 : 7 curr: 5
0x31ef9700 : 3
After Swap:
Trace File 1: 0x31efb030
Trace File 2: 0x31efacd0
Gunzip Command 1: xz -dc ./server_030.champsimtrace.xz
Gunzip Command 2: xz -dc ./server_037.champsimtrace.xz
Successfully read from the swapped trace file.
again: 0
2000002 check cycles 
Trace 0: 669251 834138 1186977 1546749 1986591 2406723 
Trace 1: 607700 773492 1129497 1499675 1948617 2338392 
Trace 2: 0 0 0 0 0 0 
Trace 3: 1166753 1501310 1939131 2408711 3146108 3545027 
Trace 4: 0 0 0 0 0 0 
Trace 5: 0 0 0 0 0 0 
Trace 6: 880912 1077026 1274429 1513070 1730723 1968483 
Trace 7: 1008824 1207562 1426963 1698604 1936543 2182777 
Best Partition: 512 128 16 256 16 16 16 64 
2000006 check cycles 
Trace 0: 669251 834138 1186977 1546749 1986591 2406723 
Trace 1: 607700 773492 1129497 1499675 1948617 2338392 
Trace 2: 0 0 0 0 0 0 
Trace 3: 1166753 1501310 1939131 2408711 3146108 3545027 
Trace 4: 0 0 0 0 0 0 
Trace 5: 0 0 0 0 0 0 
Trace 6: 880912 1077026 1274429 1513070 1730723 1968483 
Trace 7: 1087318 1302055 1539072 1832997 2090422 2357033 
Best Partition: 512 128 16 256 16 16 16 64 
2000041 check cycles 
Trace 0: 669251 834138 1186977 1546749 1986591 2406723 
Trace 1: 607700 773492 1129497 1499675 1948617 2338392 
Trace 2: 0 0 0 0 0 0 
Trace 3: 1166753 1501310 1939131 2408711 3146108 3545027 
Trace 4: 0 0 0 0 0 0 
Trace 5: 0 0 0 0 0 0 
Trace 6: 880912 1077026 1274429 1513070 1730723 1968483 
Trace 7: 1168628 1398866 1653150 1969023 2245750 2532603 
Best Partition: 512 128 16 256 16 16 16 64 
2000004 check cycles 
Trace 0: 669251 834138 1186977 1546749 1986591 2406723 
Trace 1: 607700 773492 1129497 1499675 1948617 2338392 
Trace 2: 0 0 0 0 0 0 
Trace 3: 1166753 1501310 1939131 2408711 3146108 3545027 
Trace 4: 0 0 0 0 0 0 
Trace 5: 0 0 0 0 0 0 
Trace 6: 880912 1077026 1274429 1513070 1730723 1968483 
Trace 7: 1249630 1495778 1767584 2105126 2400844 2708032 
Best Partition: 512 128 16 256 16 16 16 64 
2000017 check cycles 
Trace 0: 669251 834138 1186977 1546749 1986591 2406723 
Trace 1: 607700 773492 1129497 1499675 1948617 2338392 
Trace 2: 0 0 0 0 0 0 
Trace 3: 1166753 1501310 1939131 2408711 3146108 3545027 
Trace 4: 0 0 0 0 0 0 
Trace 5: 0 0 0 0 0 0 
Trace 6: 880912 1077026 1274429 1513070 1730723 1968483 
Trace 7: 1331353 1593376 1882425 2242005 2557029 2884474 
Best Partition: 512 128 16 256 16 16 16 64 
2000006 check cycles 
Trace 0: 669251 834138 1186977 1546749 1986591 2406723 
Trace 1: 607700 773492 1129497 1499675 1948617 2338392 
Trace 2: 0 0 0 0 0 0 
Trace 3: 1166753 1501310 1939131 2408711 3146108 3545027 
Trace 4: 0 0 0 0 0 0 
Trace 5: 0 0 0 0 0 0 
Trace 6: 880912 1077026 1274429 1513070 1730723 1968483 
Trace 7: 1412597 1690565 1997116 2378774 2713187 3060865 
Best Partition: 512 64 16 256 16 16 16 128 
2000032 check cycles 
Trace 0: 669251 834138 1186977 1546749 1986591 2406723 
Trace 1: 607700 773492 1129497 1499675 1948617 2338392 
Trace 2: 0 0 0 0 0 0 
Trace 3: 1166753 1501310 1939131 2408711 3146108 3545027 
Trace 4: 0 0 0 0 0 0 
Trace 5: 0 0 0 0 0 0 
Trace 6: 880912 1077026 1274429 1513070 1730723 1968483 
Trace 7: 1505639 1802358 2128431 2533649 2888817 3257502 
Best Partition: 512 64 16 256 16 16 16 128 
2000028 check cycles 
Trace 0: 669251 834138 1186977 1546749 1986591 2406723 
Trace 1: 607700 773492 1129497 1499675 1948617 2338392 
Trace 2: 0 0 0 0 0 0 
Trace 3: 1166753 1501310 1939131 2408711 3146108 3545027 
Trace 4: 0 0 0 0 0 0 
Trace 5: 0 0 0 0 0 0 
Trace 6: 880912 1077026 1274429 1513070 1730723 1968483 
Trace 7: 1588480 1901413 2245444 2673497 3048730 3438401 
Best Partition: 512 64 16 256 16 16 16 128 
2000016 check cycles 
Trace 0: 669251 834138 1186977 1546749 1986591 2406723 
Trace 1: 607700 773492 1129497 1499675 1948617 2338392 
Trace 2: 0 0 0 0 0 0 
Trace 3: 1166753 1501310 1939131 2408711 3146108 3545027 
Trace 4: 0 0 0 0 0 0 
Trace 5: 0 0 0 0 0 0 
Trace 6: 880912 1077026 1274429 1513070 1730723 1968483 
Trace 7: 1671362 2000500 2362691 2813927 3209404 3620288 
Best Partition: 512 64 16 256 16 16 16 128 
2000026 check cycles 
Trace 0: 669251 834138 1186977 1546749 1986591 2406723 
Trace 1: 607700 773492 1129497 1499675 1948617 2338392 
Trace 2: 0 0 0 0 0 0 
Trace 3: 1166753 1501310 1939131 2408711 3146108 3545027 
Trace 4: 0 0 0 0 0 0 
Trace 5: 0 0 0 0 0 0 
Trace 6: 880912 1077026 1274429 1513070 1730723 1968483 
Trace 7: 1757891 2103693 2484066 2958557 3374689 3806715 
Best Partition: 512 64 16 256 16 16 16 128 
2000004 check cycles 
Trace 0: 669251 834138 1186977 1546749 1986591 2406723 
Trace 1: 607700 773492 1129497 1499675 1948617 2338392 
Trace 2: 0 0 0 0 0 0 
Trace 3: 1166753 1501310 1939131 2408711 3146108 3545027 
Trace 4: 0 0 0 0 0 0 
Trace 5: 0 0 0 0 0 0 
Trace 6: 880912 1077026 1274429 1513070 1730723 1968483 
Trace 7: 1842641 2205219 2603897 3101450 3537509 3990658 
Best Partition: 64 128 16 256 16 16 16 512 
Heartbeat CPU 0 instructions: 70000001 cycles: 197692857 heartbeat IPC: 0.227115 cumulative IPC: 0.235906 (Simulation time: 0 hr 7 min 56 sec) 
Before Swap:
Trace File 1: 0x31efb030
Trace File 2: 0x31efa970
Gunzip Command 1: xz -dc ./server_030.champsimtrace.xz
Gunzip Command 2: xz -dc ./server_031.champsimtrace.xz
0x31efa970 : 6 curr: 0
0x31efb030 : 7
After Swap:
Trace File 1: 0x31efa970
Trace File 2: 0x31ef9460
Gunzip Command 1: xz -dc ./server_031.champsimtrace.xz
Gunzip Command 2: xz -dc ./server_039.champsimtrace.xz
Successfully read from the swapped trace file.
again: 1
2000014 check cycles 
Trace 0: 669251 834138 1186977 1546749 1986591 2406723 
Trace 1: 607700 773492 1129497 1499675 1948617 2338392 
Trace 2: 0 0 0 0 0 0 
Trace 3: 1166753 1501310 1939131 2408711 3146108 3545027 
Trace 4: 0 0 0 0 0 0 
Trace 5: 0 0 0 0 0 0 
Trace 6: 921104 1125917 1332053 1581081 1808022 2056524 
Trace 7: 1875366 2244168 2649776 3156242 3600407 4061950 
Best Partition: 64 128 16 256 16 16 16 512 
2000017 check cycles 
Trace 0: 669251 834138 1186977 1546749 1986591 2406723 
Trace 1: 607700 773492 1129497 1499675 1948617 2338392 
Trace 2: 0 0 0 0 0 0 
Trace 3: 1166753 1501310 1939131 2408711 3146108 3545027 
Trace 4: 0 0 0 0 0 0 
Trace 5: 0 0 0 0 0 0 
Trace 6: 988169 1208163 1430160 1698832 1943730 2211501 
Trace 7: 1875366 2244168 2649776 3156242 3600407 4061950 
Best Partition: 64 128 16 256 16 16 16 512 
2000020 check cycles 
Trace 0: 669251 834138 1186977 1546749 1986591 2406723 
Trace 1: 607700 773492 1129497 1499675 1948617 2338392 
Trace 2: 0 0 0 0 0 0 
Trace 3: 1166753 1501310 1939131 2408711 3146108 3545027 
Trace 4: 0 0 0 0 0 0 
Trace 5: 0 0 0 0 0 0 
Trace 6: 1082345 1323789 1562802 1850143 2112521 2398533 
Trace 7: 1875366 2244168 2649776 3156242 3600407 4061950 
Best Partition: 64 128 16 256 16 16 16 512 
2000019 check cycles 
Trace 0: 669251 834138 1186977 1546749 1986591 2406723 
Trace 1: 607700 773492 1129497 1499675 1948617 2338392 
Trace 2: 0 0 0 0 0 0 
Trace 3: 1166753 1501310 1939131 2408711 3146108 3545027 
Trace 4: 0 0 0 0 0 0 
Trace 5: 0 0 0 0 0 0 
Trace 6: 1147692 1403775 1658023 1963870 2243142 2547976 
Trace 7: 1875366 2244168 2649776 3156242 3600407 4061950 
Best Partition: 64 128 16 256 16 16 16 512 
2000390 check cycles 
Trace 0: 669251 834138 1186977 1546749 1986591 2406723 
Trace 1: 607700 773492 1129497 1499675 1948617 2338392 
Trace 2: 0 0 0 0 0 0 
Trace 3: 1166753 1501310 1939131 2408711 3146108 3545027 
Trace 4: 0 0 0 0 0 0 
Trace 5: 0 0 0 0 0 0 
Trace 6: 1216655 1487913 1758085 2083538 2380661 2704833 
Trace 7: 1875366 2244168 2649776 3156242 3600407 4061950 
Best Partition: 16 128 16 256 16 16 64 512 
2000047 check cycles 
Trace 0: 669251 834138 1186977 1546749 1986591 2406723 
Trace 1: 607700 773492 1129497 1499675 1948617 2338392 
Trace 2: 0 0 0 0 0 0 
Trace 3: 1166753 1501310 1939131 2408711 3146108 3545027 
Trace 4: 0 0 0 0 0 0 
Trace 5: 0 0 0 0 0 0 
Trace 6: 1298836 1588992 1876777 2222754 2539162 2883367 
Trace 7: 1875366 2244168 2649776 3156242 3600407 4061950 
Best Partition: 16 128 16 256 16 16 64 512 
2000003 check cycles 
Trace 0: 669251 834138 1186977 1546749 1986591 2406723 
Trace 1: 607700 773492 1129497 1499675 1948617 2338392 
Trace 2: 0 0 0 0 0 0 
Trace 3: 1166753 1501310 1939131 2408711 3146108 3545027 
Trace 4: 0 0 0 0 0 0 
Trace 5: 0 0 0 0 0 0 
Trace 6: 1371086 1677424 1981502 2346959 2681001 3045322 
Trace 7: 1875366 2244168 2649776 3156242 3600407 4061950 
Best Partition: 16 128 16 256 16 16 64 512 
2000001 check cycles 
Trace 0: 669251 834138 1186977 1546749 1986591 2406723 
Trace 1: 607700 773492 1129497 1499675 1948617 2338392 
Trace 2: 0 0 0 0 0 0 
Trace 3: 1166753 1501310 1939131 2408711 3146108 3545027 
Trace 4: 0 0 0 0 0 0 
Trace 5: 0 0 0 0 0 0 
Trace 6: 1445123 1768100 2089114 2475249 2827872 3212474 
Trace 7: 1875366 2244168 2649776 3156242 3600407 4061950 
Best Partition: 16 64 16 256 16 16 128 512 
2000026 check cycles 
Trace 0: 669251 834138 1186977 1546749 1986591 2406723 
Trace 1: 607700 773492 1129497 1499675 1948617 2338392 
Trace 2: 0 0 0 0 0 0 
Trace 3: 1166753 1501310 1939131 2408711 3146108 3545027 
Trace 4: 0 0 0 0 0 0 
Trace 5: 0 0 0 0 0 0 
Trace 6: 1520640 1860634 2198905 2606115 2977924 3383630 
Trace 7: 1875366 2244168 2649776 3156242 3600407 4061950 
Best Partition: 16 64 16 256 16 16 128 512 
2000025 check cycles 
Trace 0: 669251 834138 1186977 1546749 1986591 2406723 
Trace 1: 607700 773492 1129497 1499675 1948617 2338392 
Trace 2: 0 0 0 0 0 0 
Trace 3: 1166753 1501310 1939131 2408711 3146108 3545027 
Trace 4: 0 0 0 0 0 0 
Trace 5: 0 0 0 0 0 0 
Trace 6: 1596801 1953728 2309547 2738034 3129266 3556305 
Trace 7: 1875366 2244168 2649776 3156242 3600407 4061950 
Best Partition: 16 64 16 256 16 16 128 512 
2000001 check cycles 
Trace 0: 669251 834138 1186977 1546749 1986591 2406723 
Trace 1: 607700 773492 1129497 1499675 1948617 2338392 
Trace 2: 0 0 0 0 0 0 
Trace 3: 1166753 1501310 1939131 2408711 3146108 3545027 
Trace 4: 0 0 0 0 0 0 
Trace 5: 0 0 0 0 0 0 
Trace 6: 1671522 2045028 2418010 2867384 3277574 3725427 
Trace 7: 1875366 2244168 2649776 3156242 3600407 4061950 
Best Partition: 16 64 16 256 16 16 128 512 
2000009 check cycles 
Trace 0: 669251 834138 1186977 1546749 1986591 2406723 
Trace 1: 607700 773492 1129497 1499675 1948617 2338392 
Trace 2: 0 0 0 0 0 0 
Trace 3: 1166753 1501310 1939131 2408711 3146108 3545027 
Trace 4: 0 0 0 0 0 0 
Trace 5: 0 0 0 0 0 0 
Trace 6: 1749909 2140721 2531082 3002351 3432313 3901244 
Trace 7: 1875366 2244168 2649776 3156242 3600407 4061950 
Best Partition: 16 64 16 256 16 16 128 512 
Before Swap:
Trace File 1: 0x31efa970
Trace File 2: 0x31ef9460
Gunzip Command 1: xz -dc ./server_031.champsimtrace.xz
Gunzip Command 2: xz -dc ./server_039.champsimtrace.xz
0x31ef9460 : 2 curr: 1
0x31efa970 : 6
After Swap:
Trace File 1: 0x31ef9460
Trace File 2: 0x31ef91c0
Gunzip Command 1: xz -dc ./server_039.champsimtrace.xz
Gunzip Command 2: xz -dc ./server_038.champsimtrace.xz
Successfully read from the swapped trace file.
again: 0
2000049 check cycles 
Trace 0: 669251 834138 1186977 1546749 1986591 2406723 
Trace 1: 607700 773492 1129497 1499675 1948617 2338392 
Trace 2: 30351 31981 36803 41240 47176 56374 
Trace 3: 1166753 1501310 1939131 2408711 3146108 3545027 
Trace 4: 0 0 0 0 0 0 
Trace 5: 0 0 0 0 0 0 
Trace 6: 1769442 2164832 2559756 3036008 3470482 3944966 
Trace 7: 1875366 2244168 2649776 3156242 3600407 4061950 
Best Partition: 64 128 32 512 16 16 128 128 
2000023 check cycles 
Trace 0: 669251 834138 1186977 1546749 1986591 2406723 
Trace 1: 607700 773492 1129497 1499675 1948617 2338392 
Trace 2: 77412 81291 93760 104904 119562 142817 
Trace 3: 1166753 1501310 1939131 2408711 3146108 3545027 
Trace 4: 0 0 0 0 0 0 
Trace 5: 0 0 0 0 0 0 
Trace 6: 1769442 2164832 2559756 3036008 3470482 3944966 
Trace 7: 1875366 2244168 2649776 3156242 3600407 4061950 
Best Partition: 64 128 32 512 16 16 128 128 
2000012 check cycles 
Trace 0: 669251 834138 1186977 1546749 1986591 2406723 
Trace 1: 607700 773492 1129497 1499675 1948617 2338392 
Trace 2: 124953 131134 151334 169280 192653 230116 
Trace 3: 1166753 1501310 1939131 2408711 3146108 3545027 
Trace 4: 0 0 0 0 0 0 
Trace 5: 0 0 0 0 0 0 
Trace 6: 1769442 2164832 2559756 3036008 3470482 3944966 
Trace 7: 1875366 2244168 2649776 3156242 3600407 4061950 
Best Partition: 64 128 32 512 16 16 128 128 
2000011 check cycles 
Trace 0: 669251 834138 1186977 1546749 1986591 2406723 
Trace 1: 607700 773492 1129497 1499675 1948617 2338392 
Trace 2: 172466 180947 208856 233468 265539 317096 
Trace 3: 1166753 1501310 1939131 2408711 3146108 3545027 
Trace 4: 0 0 0 0 0 0 
Trace 5: 0 0 0 0 0 0 
Trace 6: 1769442 2164832 2559756 3036008 3470482 3944966 
Trace 7: 1875366 2244168 2649776 3156242 3600407 4061950 
Best Partition: 64 128 32 512 16 16 128 128 
2000015 check cycles 
Trace 0: 669251 834138 1186977 1546749 1986591 2406723 
Trace 1: 607700 773492 1129497 1499675 1948617 2338392 
Trace 2: 225091 236277 271624 304066 347194 415753 
Trace 3: 1166753 1501310 1939131 2408711 3146108 3545027 
Trace 4: 0 0 0 0 0 0 
Trace 5: 0 0 0 0 0 0 
Trace 6: 1769442 2164832 2559756 3036008 3470482 3944966 
Trace 7: 1875366 2244168 2649776 3156242 3600407 4061950 
Best Partition: 64 128 32 512 16 16 128 128 
2000006 check cycles 
Trace 0: 669251 834138 1186977 1546749 1986591 2406723 
Trace 1: 607700 773492 1129497 1499675 1948617 2338392 
Trace 2: 271855 285376 327903 366862 418020 499690 
Trace 3: 1166753 1501310 1939131 2408711 3146108 3545027 
Trace 4: 0 0 0 0 0 0 
Trace 5: 0 0 0 0 0 0 
Trace 6: 1769442 2164832 2559756 3036008 3470482 3944966 
Trace 7: 1875366 2244168 2649776 3156242 3600407 4061950 
Best Partition: 64 128 32 512 16 16 128 128 
2000026 check cycles 
Trace 0: 669251 834138 1186977 1546749 1986591 2406723 
Trace 1: 607700 773492 1129497 1499675 1948617 2338392 
Trace 2: 319236 335156 384974 430552 490344 585468 
Trace 3: 1166753 1501310 1939131 2408711 3146108 3545027 
Trace 4: 0 0 0 0 0 0 
Trace 5: 0 0 0 0 0 0 
Trace 6: 1769442 2164832 2559756 3036008 3470482 3944966 
Trace 7: 1875366 2244168 2649776 3156242 3600407 4061950 
Best Partition: 64 128 32 512 16 16 128 128 
2000017 check cycles 
Trace 0: 669251 834138 1186977 1546749 1986591 2406723 
Trace 1: 607700 773492 1129497 1499675 1948617 2338392 
Trace 2: 366585 384860 441955 494163 562662 671346 
Trace 3: 1166753 1501310 1939131 2408711 3146108 3545027 
Trace 4: 0 0 0 0 0 0 
Trace 5: 0 0 0 0 0 0 
Trace 6: 1769442 2164832 2559756 3036008 3470482 3944966 
Trace 7: 1875366 2244168 2649776 3156242 3600407 4061950 
Best Partition: 64 128 32 512 16 16 128 128 
2000009 check cycles 
Trace 0: 669251 834138 1186977 1546749 1986591 2406723 
Trace 1: 607700 773492 1129497 1499675 1948617 2338392 
Trace 2: 414414 435090 499486 558308 635376 757431 
Trace 3: 1166753 1501310 1939131 2408711 3146108 3545027 
Trace 4: 0 0 0 0 0 0 
Trace 5: 0 0 0 0 0 0 
Trace 6: 1769442 2164832 2559756 3036008 3470482 3944966 
Trace 7: 1875366 2244168 2649776 3156242 3600407 4061950 
Best Partition: 64 128 32 512 16 16 128 128 
2000028 check cycles 
Trace 0: 669251 834138 1186977 1546749 1986591 2406723 
Trace 1: 607700 773492 1129497 1499675 1948617 2338392 
Trace 2: 461770 484801 556562 622082 707808 843437 
Trace 3: 1166753 1501310 1939131 2408711 3146108 3545027 
Trace 4: 0 0 0 0 0 0 
Trace 5: 0 0 0 0 0 0 
Trace 6: 1769442 2164832 2559756 3036008 3470482 3944966 
Trace 7: 1875366 2244168 2649776 3156242 3600407 4061950 
Best Partition: 64 128 32 512 16 16 128 128 
2000026 check cycles 
Trace 0: 669251 834138 1186977 1546749 1986591 2406723 
Trace 1: 607700 773492 1129497 1499675 1948617 2338392 
Trace 2: 509135 534567 613604 685707 780070 929030 
Trace 3: 1166753 1501310 1939131 2408711 3146108 3545027 
Trace 4: 0 0 0 0 0 0 
Trace 5: 0 0 0 0 0 0 
Trace 6: 1769442 2164832 2559756 3036008 3470482 3944966 
Trace 7: 1875366 2244168 2649776 3156242 3600407 4061950 
Best Partition: 64 128 32 512 16 16 128 128 
2000017 check cycles 
Trace 0: 669251 834138 1186977 1546749 1986591 2406723 
Trace 1: 607700 773492 1129497 1499675 1948617 2338392 
Trace 2: 556493 584280 670603 749359 852382 1014916 
Trace 3: 1166753 1501310 1939131 2408711 3146108 3545027 
Trace 4: 0 0 0 0 0 0 
Trace 5: 0 0 0 0 0 0 
Trace 6: 1769442 2164832 2559756 3036008 3470482 3944966 
Trace 7: 1875366 2244168 2649776 3156242 3600407 4061950 
Best Partition: 64 128 32 512 16 16 128 128 
Heartbeat CPU 0 instructions: 80000000 cycles: 245114343 heartbeat IPC: 0.210875 cumulative IPC: 0.230922 (Simulation time: 0 hr 9 min 20 sec) 
Before Swap:
Trace File 1: 0x31ef9460
Trace File 2: 0x31efb030
Gunzip Command 1: xz -dc ./server_039.champsimtrace.xz
Gunzip Command 2: xz -dc ./server_030.champsimtrace.xz
0x31efb030 : 7 curr: 0
0x31ef9460 : 2
After Swap:
Trace File 1: 0x31efb030
Trace File 2: 0x31efa970
Gunzip Command 1: xz -dc ./server_030.champsimtrace.xz
Gunzip Command 2: xz -dc ./server_031.champsimtrace.xz
Successfully read from the swapped trace file.
again: 4
2000045 check cycles 
Trace 0: 669251 834138 1186977 1546749 1986591 2406723 
Trace 1: 607700 773492 1129497 1499675 1948617 2338392 
Trace 2: 560187 588235 675220 754568 858307 1021931 
Trace 3: 1166753 1501310 1939131 2408711 3146108 3545027 
Trace 4: 0 0 0 0 0 0 
Trace 5: 0 0 0 0 0 0 
Trace 6: 1769442 2164832 2559756 3036008 3470482 3944966 
Trace 7: 1958257 2343848 2768308 3296275 3758976 4239085 
Best Partition: 64 128 32 512 16 16 128 128 
2000007 check cycles 
Trace 0: 669251 834138 1186977 1546749 1986591 2406723 
Trace 1: 607700 773492 1129497 1499675 1948617 2338392 
Trace 2: 560187 588235 675220 754568 858307 1021931 
Trace 3: 1166753 1501310 1939131 2408711 3146108 3545027 
Trace 4: 0 0 0 0 0 0 
Trace 5: 0 0 0 0 0 0 
Trace 6: 1769442 2164832 2559756 3036008 3470482 3944966 
Trace 7: 2042237 2444633 2887245 3438037 3920561 4421726 
Best Partition: 64 128 32 512 16 16 128 128 
2000019 check cycles 
Trace 0: 669251 834138 1186977 1546749 1986591 2406723 
Trace 1: 607700 773492 1129497 1499675 1948617 2338392 
Trace 2: 560187 588235 675220 754568 858307 1021931 
Trace 3: 1166753 1501310 1939131 2408711 3146108 3545027 
Trace 4: 0 0 0 0 0 0 
Trace 5: 0 0 0 0 0 0 
Trace 6: 1769442 2164832 2559756 3036008 3470482 3944966 
Trace 7: 2126337 2545186 3005779 3579291 4081714 4603670 
Best Partition: 64 128 32 512 16 16 128 128 
2000010 check cycles 
Trace 0: 669251 834138 1186977 1546749 1986591 2406723 
Trace 1: 607700 773492 1129497 1499675 1948617 2338392 
Trace 2: 560187 588235 675220 754568 858307 1021931 
Trace 3: 1166753 1501310 1939131 2408711 3146108 3545027 
Trace 4: 0 0 0 0 0 0 
Trace 5: 0 0 0 0 0 0 
Trace 6: 1769442 2164832 2559756 3036008 3470482 3944966 
Trace 7: 2209458 2644546 3123221 3719608 4242207 4785310 
Best Partition: 64 128 32 512 16 16 128 128 
2000008 check cycles 
Trace 0: 669251 834138 1186977 1546749 1986591 2406723 
Trace 1: 607700 773492 1129497 1499675 1948617 2338392 
Trace 2: 560187 588235 675220 754568 858307 1021931 
Trace 3: 1166753 1501310 1939131 2408711 3146108 3545027 
Trace 4: 0 0 0 0 0 0 
Trace 5: 0 0 0 0 0 0 
Trace 6: 1769442 2164832 2559756 3036008 3470482 3944966 
Trace 7: 2312433 2768567 3267892 3888455 4433365 4998499 
Best Partition: 64 128 32 512 16 16 128 128 
2000032 check cycles 
Trace 0: 669251 834138 1186977 1546749 1986591 2406723 
Trace 1: 607700 773492 1129497 1499675 1948617 2338392 
Trace 2: 560187 588235 675220 754568 858307 1021931 
Trace 3: 1166753 1501310 1939131 2408711 3146108 3545027 
Trace 4: 0 0 0 0 0 0 
Trace 5: 0 0 0 0 0 0 
Trace 6: 1769442 2164832 2559756 3036008 3470482 3944966 
Trace 7: 2405455 2879855 3398041 4041870 4607986 5194647 
Best Partition: 64 128 32 128 16 16 128 512 
2000017 check cycles 
Trace 0: 669251 834138 1186977 1546749 1986591 2406723 
Trace 1: 607700 773492 1129497 1499675 1948617 2338392 
Trace 2: 560187 588235 675220 754568 858307 1021931 
Trace 3: 1166753 1501310 1939131 2408711 3146108 3545027 
Trace 4: 0 0 0 0 0 0 
Trace 5: 0 0 0 0 0 0 
Trace 6: 1769442 2164832 2559756 3036008 3470482 3944966 
Trace 7: 2492557 2984264 3521444 4189160 4776224 5385103 
Best Partition: 64 128 32 128 16 16 128 512 
2000003 check cycles 
Trace 0: 669251 834138 1186977 1546749 1986591 2406723 
Trace 1: 607700 773492 1129497 1499675 1948617 2338392 
Trace 2: 560187 588235 675220 754568 858307 1021931 
Trace 3: 1166753 1501310 1939131 2408711 3146108 3545027 
Trace 4: 0 0 0 0 0 0 
Trace 5: 0 0 0 0 0 0 
Trace 6: 1769442 2164832 2559756 3036008 3470482 3944966 
Trace 7: 2584543 3094161 3650792 4343206 4951778 5583046 
Best Partition: 64 128 32 128 16 16 128 512 
2000005 check cycles 
Trace 0: 669251 834138 1186977 1546749 1986591 2406723 
Trace 1: 607700 773492 1129497 1499675 1948617 2338392 
Trace 2: 560187 588235 675220 754568 858307 1021931 
Trace 3: 1166753 1501310 1939131 2408711 3146108 3545027 
Trace 4: 0 0 0 0 0 0 
Trace 5: 0 0 0 0 0 0 
Trace 6: 1769442 2164832 2559756 3036008 3470482 3944966 
Trace 7: 2681106 3209890 3788125 4505822 5136746 5790664 
Best Partition: 64 128 32 128 16 16 128 512 
2000008 check cycles 
Trace 0: 669251 834138 1186977 1546749 1986591 2406723 
Trace 1: 607700 773492 1129497 1499675 1948617 2338392 
Trace 2: 560187 588235 675220 754568 858307 1021931 
Trace 3: 1166753 1501310 1939131 2408711 3146108 3545027 
Trace 4: 0 0 0 0 0 0 
Trace 5: 0 0 0 0 0 0 
Trace 6: 1769442 2164832 2559756 3036008 3470482 3944966 
Trace 7: 2773348 3320088 3917889 4660246 5312619 5988899 
Best Partition: 64 128 32 128 16 16 128 512 
Before Swap:
Trace File 1: 0x31efb030
Trace File 2: 0x31efa2b0
Gunzip Command 1: xz -dc ./server_030.champsimtrace.xz
Gunzip Command 2: xz -dc ./server_032.champsimtrace.xz
0x31efa2b0 : 5 curr: 4
0x31efb030 : 7
After Swap:
Trace File 1: 0x31efa2b0
Trace File 2: 0x31ef9700
Gunzip Command 1: xz -dc ./server_032.champsimtrace.xz
Gunzip Command 2: xz -dc ./server_034.champsimtrace.xz
Successfully read from the swapped trace file.
again: 5
2000034 check cycles 
Trace 0: 669251 834138 1186977 1546749 1986591 2406723 
Trace 1: 607700 773492 1129497 1499675 1948617 2338392 
Trace 2: 560187 588235 675220 754568 858307 1021931 
Trace 3: 1166753 1501310 1939131 2408711 3146108 3545027 
Trace 4: 0 0 0 0 0 0 
Trace 5: 13709 17374 21556 26478 30779 35453 
Trace 6: 1769442 2164832 2559756 3036008 3470482 3944966 
Trace 7: 2834662 3393336 4004829 4765019 5433191 6125709 
Best Partition: 64 128 32 128 16 16 128 512 
2000003 check cycles 
Trace 0: 669251 834138 1186977 1546749 1986591 2406723 
Trace 1: 607700 773492 1129497 1499675 1948617 2338392 
Trace 2: 560187 588235 675220 754568 858307 1021931 
Trace 3: 1166753 1501310 1939131 2408711 3146108 3545027 
Trace 4: 0 0 0 0 0 0 
Trace 5: 70470 89803 111148 137368 160291 184484 
Trace 6: 1769442 2164832 2559756 3036008 3470482 3944966 
Trace 7: 2834662 3393336 4004829 4765019 5433191 6125709 
Best Partition: 64 128 32 128 16 16 128 512 
2000031 check cycles 
Trace 0: 669251 834138 1186977 1546749 1986591 2406723 
Trace 1: 607700 773492 1129497 1499675 1948617 2338392 
Trace 2: 560187 588235 675220 754568 858307 1021931 
Trace 3: 1166753 1501310 1939131 2408711 3146108 3545027 
Trace 4: 0 0 0 0 0 0 
Trace 5: 127749 162899 201682 249898 292068 336368 
Trace 6: 1769442 2164832 2559756 3036008 3470482 3944966 
Trace 7: 2834662 3393336 4004829 4765019 5433191 6125709 
Best Partition: 64 128 16 128 16 32 128 512 
2000042 check cycles 
Trace 0: 669251 834138 1186977 1546749 1986591 2406723 
Trace 1: 607700 773492 1129497 1499675 1948617 2338392 
Trace 2: 560187 588235 675220 754568 858307 1021931 
Trace 3: 1166753 1501310 1939131 2408711 3146108 3545027 
Trace 4: 0 0 0 0 0 0 
Trace 5: 186379 237519 294110 364579 426356 491206 
Trace 6: 1769442 2164832 2559756 3036008 3470482 3944966 
Trace 7: 2834662 3393336 4004829 4765019 5433191 6125709 
Best Partition: 64 128 16 128 16 32 128 512 
2000003 check cycles 
Trace 0: 669251 834138 1186977 1546749 1986591 2406723 
Trace 1: 607700 773492 1129497 1499675 1948617 2338392 
Trace 2: 560187 588235 675220 754568 858307 1021931 
Trace 3: 1166753 1501310 1939131 2408711 3146108 3545027 
Trace 4: 0 0 0 0 0 0 
Trace 5: 245221 312548 387066 479781 561171 646625 
Trace 6: 1769442 2164832 2559756 3036008 3470482 3944966 
Trace 7: 2834662 3393336 4004829 4765019 5433191 6125709 
Best Partition: 64 128 16 128 16 32 128 512 
2000002 check cycles 
Trace 0: 669251 834138 1186977 1546749 1986591 2406723 
Trace 1: 607700 773492 1129497 1499675 1948617 2338392 
Trace 2: 560187 588235 675220 754568 858307 1021931 
Trace 3: 1166753 1501310 1939131 2408711 3146108 3545027 
Trace 4: 0 0 0 0 0 0 
Trace 5: 304540 388272 480823 595828 696926 803034 
Trace 6: 1769442 2164832 2559756 3036008 3470482 3944966 
Trace 7: 2834662 3393336 4004829 4765019 5433191 6125709 
Best Partition: 64 128 16 128 16 32 128 512 
2000004 check cycles 
Trace 0: 669251 834138 1186977 1546749 1986591 2406723 
Trace 1: 607700 773492 1129497 1499675 1948617 2338392 
Trace 2: 560187 588235 675220 754568 858307 1021931 
Trace 3: 1166753 1501310 1939131 2408711 3146108 3545027 
Trace 4: 0 0 0 0 0 0 
Trace 5: 363306 463185 573630 710916 831663 958453 
Trace 6: 1769442 2164832 2559756 3036008 3470482 3944966 
Trace 7: 2834662 3393336 4004829 4765019 5433191 6125709 
Best Partition: 64 128 16 128 16 32 128 512 
2000009 check cycles 
Trace 0: 669251 834138 1186977 1546749 1986591 2406723 
Trace 1: 607700 773492 1129497 1499675 1948617 2338392 
Trace 2: 560187 588235 675220 754568 858307 1021931 
Trace 3: 1166753 1501310 1939131 2408711 3146108 3545027 
Trace 4: 0 0 0 0 0 0 
Trace 5: 422151 538209 666556 826120 966415 1113742 
Trace 6: 1769442 2164832 2559756 3036008 3470482 3944966 
Trace 7: 2834662 3393336 4004829 4765019 5433191 6125709 
Best Partition: 64 128 16 128 16 32 128 512 
2000018 check cycles 
Trace 0: 669251 834138 1186977 1546749 1986591 2406723 
Trace 1: 607700 773492 1129497 1499675 1948617 2338392 
Trace 2: 560187 588235 675220 754568 858307 1021931 
Trace 3: 1166753 1501310 1939131 2408711 3146108 3545027 
Trace 4: 0 0 0 0 0 0 
Trace 5: 480754 612867 759035 940845 1100732 1268621 
Trace 6: 1769442 2164832 2559756 3036008 3470482 3944966 
Trace 7: 2834662 3393336 4004829 4765019 5433191 6125709 
Best Partition: 64 128 16 128 16 32 128 512 
2000037 check cycles 
Trace 0: 669251 834138 1186977 1546749 1986591 2406723 
Trace 1: 607700 773492 1129497 1499675 1948617 2338392 
Trace 2: 560187 588235 675220 754568 858307 1021931 
Trace 3: 1166753 1501310 1939131 2408711 3146108 3545027 
Trace 4: 0 0 0 0 0 0 
Trace 5: 539875 688287 852426 1056539 1236107 1424706 
Trace 6: 1769442 2164832 2559756 3036008 3470482 3944966 
Trace 7: 2834662 3393336 4004829 4765019 5433191 6125709 
Best Partition: 64 128 16 128 16 32 128 512 
2000004 check cycles 
Trace 0: 669251 834138 1186977 1546749 1986591 2406723 
Trace 1: 607700 773492 1129497 1499675 1948617 2338392 
Trace 2: 560187 588235 675220 754568 858307 1021931 
Trace 3: 1166753 1501310 1939131 2408711 3146108 3545027 
Trace 4: 0 0 0 0 0 0 
Trace 5: 598690 763392 945488 1171898 1371107 1580381 
Trace 6: 1769442 2164832 2559756 3036008 3470482 3944966 
Trace 7: 2834662 3393336 4004829 4765019 5433191 6125709 
Best Partition: 64 128 16 128 16 32 128 512 
2000021 check cycles 
Trace 0: 669251 834138 1186977 1546749 1986591 2406723 
Trace 1: 607700 773492 1129497 1499675 1948617 2338392 
Trace 2: 560187 588235 675220 754568 858307 1021931 
Trace 3: 1166753 1501310 1939131 2408711 3146108 3545027 
Trace 4: 0 0 0 0 0 0 
Trace 5: 657473 838304 1038280 1287037 1505848 1735720 
Trace 6: 1769442 2164832 2559756 3036008 3470482 3944966 
Trace 7: 2834662 3393336 4004829 4765019 5433191 6125709 
Best Partition: 64 128 16 128 16 32 128 512 
Heartbeat CPU 0 instructions: 90000000 cycles: 290475599 heartbeat IPC: 0.220452 cumulative IPC: 0.229247 (Simulation time: 0 hr 10 min 33 sec) 
Before Swap:
Trace File 1: 0x31efa2b0
Trace File 2: 0x31ef9700
Gunzip Command 1: xz -dc ./server_032.champsimtrace.xz
Gunzip Command 2: xz -dc ./server_034.champsimtrace.xz
0x31ef9700 : 3 curr: 5
0x31efa2b0 : 5
After Swap:
Trace File 1: 0x31ef9700
Trace File 2: 0x31efacd0
Gunzip Command 1: xz -dc ./server_034.champsimtrace.xz
Gunzip Command 2: xz -dc ./server_037.champsimtrace.xz
Successfully read from the swapped trace file.
again: 6
2000013 check cycles 
Trace 0: 669251 834138 1186977 1546749 1986591 2406723 
Trace 1: 607700 773492 1129497 1499675 1948617 2338392 
Trace 2: 560187 588235 675220 754568 858307 1021931 
Trace 3: 1173714 1510445 1951207 2423970 3166662 3568401 
Trace 4: 0 0 0 0 0 0 
Trace 5: 701210 893855 1107140 1372438 1606058 1851590 
Trace 6: 1769442 2164832 2559756 3036008 3470482 3944966 
Trace 7: 2834662 3393336 4004829 4765019 5433191 6125709 
Best Partition: 64 128 16 128 16 32 128 512 
2000042 check cycles 
Trace 0: 669251 834138 1186977 1546749 1986591 2406723 
Trace 1: 607700 773492 1129497 1499675 1948617 2338392 
Trace 2: 560187 588235 675220 754568 858307 1021931 
Trace 3: 1226441 1578433 2039220 2533381 3309281 3728966 
Trace 4: 0 0 0 0 0 0 
Trace 5: 701210 893855 1107140 1372438 1606058 1851590 
Trace 6: 1769442 2164832 2559756 3036008 3470482 3944966 
Trace 7: 2834662 3393336 4004829 4765019 5433191 6125709 
Best Partition: 64 128 16 128 16 32 128 512 
2000004 check cycles 
Trace 0: 669251 834138 1186977 1546749 1986591 2406723 
Trace 1: 607700 773492 1129497 1499675 1948617 2338392 
Trace 2: 560187 588235 675220 754568 858307 1021931 
Trace 3: 1282051 1649679 2130868 2647331 3458833 3897090 
Trace 4: 0 0 0 0 0 0 
Trace 5: 701210 893855 1107140 1372438 1606058 1851590 
Trace 6: 1769442 2164832 2559756 3036008 3470482 3944966 
Trace 7: 2834662 3393336 4004829 4765019 5433191 6125709 
Best Partition: 64 128 16 128 16 32 128 512 
2000006 check cycles 
Trace 0: 669251 834138 1186977 1546749 1986591 2406723 
Trace 1: 607700 773492 1129497 1499675 1948617 2338392 
Trace 2: 560187 588235 675220 754568 858307 1021931 
Trace 3: 1335366 1718488 2220143 2758202 3603158 4060035 
Trace 4: 0 0 0 0 0 0 
Trace 5: 701210 893855 1107140 1372438 1606058 1851590 
Trace 6: 1769442 2164832 2559756 3036008 3470482 3944966 
Trace 7: 2834662 3393336 4004829 4765019 5433191 6125709 
Best Partition: 64 128 16 128 16 32 128 512 
2000023 check cycles 
Trace 0: 669251 834138 1186977 1546749 1986591 2406723 
Trace 1: 607700 773492 1129497 1499675 1948617 2338392 
Trace 2: 560187 588235 675220 754568 858307 1021931 
Trace 3: 1391016 1789769 2311872 2872275 3752803 4228265 
Trace 4: 0 0 0 0 0 0 
Trace 5: 701210 893855 1107140 1372438 1606058 1851590 
Trace 6: 1769442 2164832 2559756 3036008 3470482 3944966 
Trace 7: 2834662 3393336 4004829 4765019 5433191 6125709 
Best Partition: 64 64 16 256 16 32 64 512 
2000014 check cycles 
Trace 0: 669251 834138 1186977 1546749 1986591 2406723 
Trace 1: 607700 773492 1129497 1499675 1948617 2338392 
Trace 2: 560187 588235 675220 754568 858307 1021931 
Trace 3: 1445844 1860240 2402937 2985098 3899285 4393460 
Trace 4: 0 0 0 0 0 0 
Trace 5: 701210 893855 1107140 1372438 1606058 1851590 
Trace 6: 1769442 2164832 2559756 3036008 3470482 3944966 
Trace 7: 2834662 3393336 4004829 4765019 5433191 6125709 
Best Partition: 64 64 16 256 16 32 64 512 
2000002 check cycles 
Trace 0: 669251 834138 1186977 1546749 1986591 2406723 
Trace 1: 607700 773492 1129497 1499675 1948617 2338392 
Trace 2: 560187 588235 675220 754568 858307 1021931 
Trace 3: 1500866 1931030 2494555 3099141 4048988 4562339 
Trace 4: 0 0 0 0 0 0 
Trace 5: 701210 893855 1107140 1372438 1606058 1851590 
Trace 6: 1769442 2164832 2559756 3036008 3470482 3944966 
Trace 7: 2834662 3393336 4004829 4765019 5433191 6125709 
Best Partition: 64 64 16 256 16 32 64 512 
2000002 check cycles 
Trace 0: 669251 834138 1186977 1546749 1986591 2406723 
Trace 1: 607700 773492 1129497 1499675 1948617 2338392 
Trace 2: 560187 588235 675220 754568 858307 1021931 
Trace 3: 1557140 2003593 2588304 3215767 4201444 4733881 
Trace 4: 0 0 0 0 0 0 
Trace 5: 701210 893855 1107140 1372438 1606058 1851590 
Trace 6: 1769442 2164832 2559756 3036008 3470482 3944966 
Trace 7: 2834662 3393336 4004829 4765019 5433191 6125709 
Best Partition: 64 128 16 512 16 32 128 128 
2000001 check cycles 
Trace 0: 669251 834138 1186977 1546749 1986591 2406723 
Trace 1: 607700 773492 1129497 1499675 1948617 2338392 
Trace 2: 560187 588235 675220 754568 858307 1021931 
Trace 3: 1615225 2080984 2692406 3344281 4367060 4919043 
Trace 4: 0 0 0 0 0 0 
Trace 5: 701210 893855 1107140 1372438 1606058 1851590 
Trace 6: 1769442 2164832 2559756 3036008 3470482 3944966 
Trace 7: 2834662 3393336 4004829 4765019 5433191 6125709 
Best Partition: 64 128 16 512 16 32 128 128 
2000053 check cycles 
Trace 0: 669251 834138 1186977 1546749 1986591 2406723 
Trace 1: 607700 773492 1129497 1499675 1948617 2338392 
Trace 2: 560187 588235 675220 754568 858307 1021931 
Trace 3: 1669840 2217467 2965174 3672481 4762759 5329310 
Trace 4: 0 0 0 0 0 0 
Trace 5: 701210 893855 1107140 1372438 1606058 1851590 
Trace 6: 1769442 2164832 2559756 3036008 3470482 3944966 
Trace 7: 2834662 3393336 4004829 4765019 5433191 6125709 
Best Partition: 64 128 16 512 16 32 128 128 
2000017 check cycles 
Trace 0: 669251 834138 1186977 1546749 1986591 2406723 
Trace 1: 607700 773492 1129497 1499675 1948617 2338392 
Trace 2: 560187 588235 675220 754568 858307 1021931 
Trace 3: 1723849 2287187 3055002 3783834 4907761 5491771 
Trace 4: 0 0 0 0 0 0 
Trace 5: 701210 893855 1107140 1372438 1606058 1851590 
Trace 6: 1769442 2164832 2559756 3036008 3470482 3944966 
Trace 7: 2834662 3393336 4004829 4765019 5433191 6125709 
Best Partition: 64 128 16 512 16 32 128 128 
Before Swap:
Trace File 1: 0x31ef9700
Trace File 2: 0x31efacd0
Gunzip Command 1: xz -dc ./server_034.champsimtrace.xz
Gunzip Command 2: xz -dc ./server_037.champsimtrace.xz
0x31efacd0 : 0 curr: 6
0x31ef9700 : 3
After Swap:
Trace File 1: 0x31efacd0
Trace File 2: 0x31ef9460
Gunzip Command 1: xz -dc ./server_037.champsimtrace.xz
Gunzip Command 2: xz -dc ./server_039.champsimtrace.xz
Successfully read from the swapped trace file.
again: 4
2000044 check cycles 
Trace 0: 687609 857445 1220933 1592202 2045701 2477499 
Trace 1: 607700 773492 1129497 1499675 1948617 2338392 
Trace 2: 560187 588235 675220 754568 858307 1021931 
Trace 3: 1730037 2295060 3064852 3796391 4925084 5511046 
Trace 4: 0 0 0 0 0 0 
Trace 5: 701210 893855 1107140 1372438 1606058 1851590 
Trace 6: 1769442 2164832 2559756 3036008 3470482 3944966 
Trace 7: 2834662 3393336 4004829 4765019 5433191 6125709 
Best Partition: 128 64 16 512 16 32 128 128 
2000281 check cycles 
Trace 0: 714885 891336 1268305 1653192 2123603 2570275 
Trace 1: 607700 773492 1129497 1499675 1948617 2338392 
Trace 2: 560187 588235 675220 754568 858307 1021931 
Trace 3: 1730037 2295060 3064852 3796391 4925084 5511046 
Trace 4: 0 0 0 0 0 0 
Trace 5: 701210 893855 1107140 1372438 1606058 1851590 
Trace 6: 1769442 2164832 2559756 3036008 3470482 3944966 
Trace 7: 2834662 3393336 4004829 4765019 5433191 6125709 
Best Partition: 128 64 16 512 16 32 128 128 
2000002 check cycles 
Trace 0: 739915 923232 1314633 1714703 2203752 2666473 
Trace 1: 607700 773492 1129497 1499675 1948617 2338392 
Trace 2: 560187 588235 675220 754568 858307 1021931 
Trace 3: 1730037 2295060 3064852 3796391 4925084 5511046 
Trace 4: 0 0 0 0 0 0 
Trace 5: 701210 893855 1107140 1372438 1606058 1851590 
Trace 6: 1769442 2164832 2559756 3036008 3470482 3944966 
Trace 7: 2834662 3393336 4004829 4765019 5433191 6125709 
Best Partition: 128 64 16 512 16 32 128 128 
2000013 check cycles 
Trace 0: 765782 956125 1362664 1778597 2286892 2766150 
Trace 1: 607700 773492 1129497 1499675 1948617 2338392 
Trace 2: 560187 588235 675220 754568 858307 1021931 
Trace 3: 1730037 2295060 3064852 3796391 4925084 5511046 
Trace 4: 0 0 0 0 0 0 
Trace 5: 701210 893855 1107140 1372438 1606058 1851590 
Trace 6: 1769442 2164832 2559756 3036008 3470482 3944966 
Trace 7: 2834662 3393336 4004829 4765019 5433191 6125709 
Best Partition: 128 64 16 512 16 32 128 128 
2000003 check cycles 
Trace 0: 800341 998029 1419779 1851009 2378210 2874004 
Trace 1: 607700 773492 1129497 1499675 1948617 2338392 
Trace 2: 560187 588235 675220 754568 858307 1021931 
Trace 3: 1730037 2295060 3064852 3796391 4925084 5511046 
Trace 4: 0 0 0 0 0 0 
Trace 5: 701210 893855 1107140 1372438 1606058 1851590 
Trace 6: 1769442 2164832 2559756 3036008 3470482 3944966 
Trace 7: 2834662 3393336 4004829 4765019 5433191 6125709 
Best Partition: 128 64 16 512 16 32 128 128 
2000012 check cycles 
Trace 0: 826321 1031259 1467987 1914377 2460786 2973347 
Trace 1: 607700 773492 1129497 1499675 1948617 2338392 
Trace 2: 560187 588235 675220 754568 858307 1021931 
Trace 3: 1730037 2295060 3064852 3796391 4925084 5511046 
Trace 4: 0 0 0 0 0 0 
Trace 5: 701210 893855 1107140 1372438 1606058 1851590 
Trace 6: 1769442 2164832 2559756 3036008 3470482 3944966 
Trace 7: 2834662 3393336 4004829 4765019 5433191 6125709 
Best Partition: 128 64 16 512 16 32 128 128 
2000017 check cycles 
Trace 0: 852145 1064241 1516404 1979009 2545014 3074485 
Trace 1: 607700 773492 1129497 1499675 1948617 2338392 
Trace 2: 560187 588235 675220 754568 858307 1021931 
Trace 3: 1730037 2295060 3064852 3796391 4925084 5511046 
Trace 4: 0 0 0 0 0 0 
Trace 5: 701210 893855 1107140 1372438 1606058 1851590 
Trace 6: 1769442 2164832 2559756 3036008 3470482 3944966 
Trace 7: 2834662 3393336 4004829 4765019 5433191 6125709 
Best Partition: 128 64 16 512 16 32 128 128 
2000013 check cycles 
Trace 0: 878178 1097479 1564804 2043165 2628572 3174867 
Trace 1: 607700 773492 1129497 1499675 1948617 2338392 
Trace 2: 560187 588235 675220 754568 858307 1021931 
Trace 3: 1730037 2295060 3064852 3796391 4925084 5511046 
Trace 4: 0 0 0 0 0 0 
Trace 5: 701210 893855 1107140 1372438 1606058 1851590 
Trace 6: 1769442 2164832 2559756 3036008 3470482 3944966 
Trace 7: 2834662 3393336 4004829 4765019 5433191 6125709 
Best Partition: 128 64 16 512 16 32 128 128 
2000012 check cycles 
Trace 0: 904062 1130440 1612921 2107276 2711978 3275040 
Trace 1: 607700 773492 1129497 1499675 1948617 2338392 
Trace 2: 560187 588235 675220 754568 858307 1021931 
Trace 3: 1730037 2295060 3064852 3796391 4925084 5511046 
Trace 4: 0 0 0 0 0 0 
Trace 5: 701210 893855 1107140 1372438 1606058 1851590 
Trace 6: 1769442 2164832 2559756 3036008 3470482 3944966 
Trace 7: 2834662 3393336 4004829 4765019 5433191 6125709 
Best Partition: 128 64 16 512 16 32 128 128 
2000023 check cycles 
Trace 0: 929594 1163062 1660983 2172031 2796421 3376291 
Trace 1: 607700 773492 1129497 1499675 1948617 2338392 
Trace 2: 560187 588235 675220 754568 858307 1021931 
Trace 3: 1730037 2295060 3064852 3796391 4925084 5511046 
Trace 4: 0 0 0 0 0 0 
Trace 5: 701210 893855 1107140 1372438 1606058 1851590 
Trace 6: 1769442 2164832 2559756 3036008 3470482 3944966 
Trace 7: 2834662 3393336 4004829 4765019 5433191 6125709 
Best Partition: 128 64 16 512 16 32 128 128 
2000011 check cycles 
Trace 0: 960342 1201050 1714190 2241025 2884604 3481087 
Trace 1: 607700 773492 1129497 1499675 1948617 2338392 
Trace 2: 560187 588235 675220 754568 858307 1021931 
Trace 3: 1730037 2295060 3064852 3796391 4925084 5511046 
Trace 4: 0 0 0 0 0 0 
Trace 5: 701210 893855 1107140 1372438 1606058 1851590 
Trace 6: 1769442 2164832 2559756 3036008 3470482 3944966 
Trace 7: 2834662 3393336 4004829 4765019 5433191 6125709 
Best Partition: 128 64 16 512 16 32 128 128 
2000008 check cycles 
Trace 0: 986625 1234562 1763148 2306332 2969581 3582966 
Trace 1: 607700 773492 1129497 1499675 1948617 2338392 
Trace 2: 560187 588235 675220 754568 858307 1021931 
Trace 3: 1730037 2295060 3064852 3796391 4925084 5511046 
Trace 4: 0 0 0 0 0 0 
Trace 5: 701210 893855 1107140 1372438 1606058 1851590 
Trace 6: 1769442 2164832 2559756 3036008 3470482 3944966 
Trace 7: 2834662 3393336 4004829 4765019 5433191 6125709 
Best Partition: 128 64 16 512 16 32 128 128 
Heartbeat CPU 0 instructions: 100000000 cycles: 335082206 heartbeat IPC: 0.224182 cumulative IPC: 0.228559 (Simulation time: 0 hr 11 min 29 sec) 
Before Swap:
Trace File 1: 0x31efacd0
Trace File 2: 0x31efb030
Gunzip Command 1: xz -dc ./server_037.champsimtrace.xz
Gunzip Command 2: xz -dc ./server_030.champsimtrace.xz
0x31efb030 : 7 curr: 4
0x31efacd0 : 0
After Swap:
Trace File 1: 0x31efb030
Trace File 2: 0x31efa2b0
Gunzip Command 1: xz -dc ./server_030.champsimtrace.xz
Gunzip Command 2: xz -dc ./server_032.champsimtrace.xz
Successfully read from the swapped trace file.
again: 0
2000013 check cycles 
Trace 0: 988400 1236730 1766375 2310840 2975547 3590066 
Trace 1: 607700 773492 1129497 1499675 1948617 2338392 
Trace 2: 560187 588235 675220 754568 858307 1021931 
Trace 3: 1730037 2295060 3064852 3796391 4925084 5511046 
Trace 4: 0 0 0 0 0 0 
Trace 5: 701210 893855 1107140 1372438 1606058 1851590 
Trace 6: 1769442 2164832 2559756 3036008 3470482 3944966 
Trace 7: 2893432 3463666 4087989 4864762 5547445 6254576 
Best Partition: 128 64 16 512 16 32 128 128 
2000017 check cycles 
Trace 0: 988400 1236730 1766375 2310840 2975547 3590066 
Trace 1: 607700 773492 1129497 1499675 1948617 2338392 
Trace 2: 560187 588235 675220 754568 858307 1021931 
Trace 3: 1730037 2295060 3064852 3796391 4925084 5511046 
Trace 4: 0 0 0 0 0 0 
Trace 5: 701210 893855 1107140 1372438 1606058 1851590 
Trace 6: 1769442 2164832 2559756 3036008 3470482 3944966 
Trace 7: 2994213 3585442 4232329 5032585 5735704 6463850 
Best Partition: 128 64 16 512 16 32 128 128 
2000007 check cycles 
Trace 0: 988400 1236730 1766375 2310840 2975547 3590066 
Trace 1: 607700 773492 1129497 1499675 1948617 2338392 
Trace 2: 560187 588235 675220 754568 858307 1021931 
Trace 3: 1730037 2295060 3064852 3796391 4925084 5511046 
Trace 4: 0 0 0 0 0 0 
Trace 5: 701210 893855 1107140 1372438 1606058 1851590 
Trace 6: 1769442 2164832 2559756 3036008 3470482 3944966 
Trace 7: 3078335 3686351 4351454 5174650 5897661 6646601 
Best Partition: 128 64 16 512 16 32 128 128 
2000010 check cycles 
Trace 0: 988400 1236730 1766375 2310840 2975547 3590066 
Trace 1: 607700 773492 1129497 1499675 1948617 2338392 
Trace 2: 560187 588235 675220 754568 858307 1021931 
Trace 3: 1730037 2295060 3064852 3796391 4925084 5511046 
Trace 4: 0 0 0 0 0 0 
Trace 5: 701210 893855 1107140 1372438 1606058 1851590 
Trace 6: 1769442 2164832 2559756 3036008 3470482 3944966 
Trace 7: 3161027 3785110 4467926 5313515 6056256 6825897 
Best Partition: 128 64 16 512 16 32 128 128 
2000007 check cycles 
Trace 0: 988400 1236730 1766375 2310840 2975547 3590066 
Trace 1: 607700 773492 1129497 1499675 1948617 2338392 
Trace 2: 560187 588235 675220 754568 858307 1021931 
Trace 3: 1730037 2295060 3064852 3796391 4925084 5511046 
Trace 4: 0 0 0 0 0 0 
Trace 5: 701210 893855 1107140 1372438 1606058 1851590 
Trace 6: 1769442 2164832 2559756 3036008 3470482 3944966 
Trace 7: 3260024 3904907 4611260 5482952 6248577 7039929 
Best Partition: 128 64 16 512 16 32 128 128 
2000026 check cycles 
Trace 0: 988400 1236730 1766375 2310840 2975547 3590066 
Trace 1: 607700 773492 1129497 1499675 1948617 2338392 
Trace 2: 560187 588235 675220 754568 858307 1021931 
Trace 3: 1730037 2295060 3064852 3796391 4925084 5511046 
Trace 4: 0 0 0 0 0 0 
Trace 5: 701210 893855 1107140 1372438 1606058 1851590 
Trace 6: 1769442 2164832 2559756 3036008 3470482 3944966 
Trace 7: 3353359 4016867 4743308 5637957 6423877 7236735 
Best Partition: 128 64 16 512 16 32 128 128 
2000006 check cycles 
Trace 0: 988400 1236730 1766375 2310840 2975547 3590066 
Trace 1: 607700 773492 1129497 1499675 1948617 2338392 
Trace 2: 560187 588235 675220 754568 858307 1021931 
Trace 3: 1730037 2295060 3064852 3796391 4925084 5511046 
Trace 4: 0 0 0 0 0 0 
Trace 5: 701210 893855 1107140 1372438 1606058 1851590 
Trace 6: 1769442 2164832 2559756 3036008 3470482 3944966 
Trace 7: 3439545 4119540 4864092 5782124 6588644 7422620 
Best Partition: 64 64 16 256 16 32 64 512 
2000005 check cycles 
Trace 0: 988400 1236730 1766375 2310840 2975547 3590066 
Trace 1: 607700 773492 1129497 1499675 1948617 2338392 
Trace 2: 560187 588235 675220 754568 858307 1021931 
Trace 3: 1730037 2295060 3064852 3796391 4925084 5511046 
Trace 4: 0 0 0 0 0 0 
[...]
Trace 4: 0 0 0 0 0 0 
Trace 5: 701210 893855 1107140 1372438 1606058 1851590 
Trace 6: 1769442 2164832 2559756 3036008 3470482 3944966 
Trace 7: 3796382 4546447 5367951 6383258 7274849 8198173 
Best Partition: 64 64 16 256 16 32 64 512 
2000030 check cycles 
Trace 0: 988400 1236730 1766375 2310840 2975547 3590066 
Trace 1: 910175 1158562 1692750 2245302 2914777 3498856 
Trace 2: 1541798 1613012 1856726 2111134 2402231 2848412 
Trace 3: 1730037 2295060 3064852 3796391 4925084 5511046 
Trace 4: 0 0 0 0 0 0 
Trace 5: 701210 893855 1107140 1372438 1606058 1851590 
Trace 6: 1769442 2164832 2559756 3036008 3470482 3944966 
Trace 7: 3796382 4546447 5367951 6383258 7274849 8198173 
Best Partition: 64 64 16 256 16 32 64 512 
2000022 check cycles 
Trace 0: 988400 1236730 1766375 2310840 2975547 3590066 
Trace 1: 910175 1158562 1692750 2245302 2914777 3498856 
Trace 2: 1586443 1659605 1910472 2172927 2472549 2931620 
Trace 3: 1730037 2295060 3064852 3796391 4925084 5511046 
Trace 4: 0 0 0 0 0 0 
Trace 5: 701210 893855 1107140 1372438 1606058 1851590 
Trace 6: 1769442 2164832 2559756 3036008 3470482 3944966 
Trace 7: 3796382 4546447 5367951 6383258 7274849 8198173 
Best Partition: 64 64 16 256 16 32 64 512 
Heartbeat CPU 0 instructions: 120000000 cycles: 428900553 heartbeat IPC: 0.208852 cumulative IPC: 0.225139 (Simulation time: 0 hr 13 min 19 sec) 
Before Swap:
Trace File 1: 0x31ef9460
Trace File 2: 0x31efb030
Gunzip Command 1: xz -dc ./server_039.champsimtrace.xz
Gunzip Command 2: xz -dc ./server_030.champsimtrace.xz
0x31efb030 : 7 curr: 0
0x31ef9460 : 2
After Swap:
Trace File 1: 0x31efb030
Trace File 2: 0x31efa970
Gunzip Command 1: xz -dc ./server_030.champsimtrace.xz
Gunzip Command 2: xz -dc ./server_031.champsimtrace.xz
Successfully read from the swapped trace file.
again: 1
2000049 check cycles 
Trace 0: 988400 1236730 1766375 2310840 2975547 3590066 
Trace 1: 910175 1158562 1692750 2245302 2914777 3498856 
Trace 2: 1630578 1705653 1963514 2233790 2541793 3013456 
Trace 3: 1730037 2295060 3064852 3796391 4925084 5511046 
Trace 4: 0 0 0 0 0 0 
Trace 5: 701210 893855 1107140 1372438 1606058 1851590 
Trace 6: 1769442 2164832 2559756 3036008 3470482 3944966 
Trace 7: 3796825 4546942 5368573 6384071 7275875 8199530 
Best Partition: 64 64 16 256 16 32 64 512 
2000003 check cycles 
Trace 0: 988400 1236730 1766375 2310840 2975547 3590066 
Trace 1: 910175 1158562 1692750 2245302 2914777 3498856 
Trace 2: 1630578 1705653 1963514 2233790 2541793 3013456 
Trace 3: 1730037 2295060 3064852 3796391 4925084 5511046 
Trace 4: 0 0 0 0 0 0 
Trace 5: 701210 893855 1107140 1372438 1606058 1851590 
Trace 6: 1769442 2164832 2559756 3036008 3470482 3944966 
Trace 7: 3880712 4647452 5487584 6526806 7439525 8384532 
Best Partition: 64 64 16 256 16 32 64 512 
2000007 check cycles 
Trace 0: 988400 1236730 1766375 2310840 2975547 3590066 
Trace 1: 910175 1158562 1692750 2245302 2914777 3498856 
Trace 2: 1630578 1705653 1963514 2233790 2541793 3013456 
Trace 3: 1730037 2295060 3064852 3796391 4925084 5511046 
Trace 4: 0 0 0 0 0 0 
Trace 5: 701210 893855 1107140 1372438 1606058 1851590 
Trace 6: 1769442 2164832 2559756 3036008 3470482 3944966 
Trace 7: 3971654 4755920 5614957 6677853 7611060 8578004 
Best Partition: 64 64 16 256 16 32 64 512 
2000004 check cycles 
Trace 0: 988400 1236730 1766375 2310840 2975547 3590066 
Trace 1: 910175 1158562 1692750 2245302 2914777 3498856 
Trace 2: 1630578 1705653 1963514 2233790 2541793 3013456 
Trace 3: 1730037 2295060 3064852 3796391 4925084 5511046 
Trace 4: 0 0 0 0 0 0 
Trace 5: 701210 893855 1107140 1372438 1606058 1851590 
Trace 6: 1769442 2164832 2559756 3036008 3470482 3944966 
Trace 7: 4061657 4863195 5741541 6829103 7784175 8773852 
Best Partition: 64 64 16 256 16 32 64 512 
2000019 check cycles 
Trace 0: 988400 1236730 1766375 2310840 2975547 3590066 
Trace 1: 910175 1158562 1692750 2245302 2914777 3498856 
Trace 2: 1630578 1705653 1963514 2233790 2541793 3013456 
Trace 3: 1730037 2295060 3064852 3796391 4925084 5511046 
Trace 4: 0 0 0 0 0 0 
Trace 5: 701210 893855 1107140 1372438 1606058 1851590 
Trace 6: 1769442 2164832 2559756 3036008 3470482 3944966 
Trace 7: 4149050 4967896 5865477 6977116 7953324 8965348 
Best Partition: 64 64 16 256 16 32 64 512 
2000011 check cycles 
Trace 0: 988400 1236730 1766375 2310840 2975547 3590066 
Trace 1: 910175 1158562 1692750 2245302 2914777 3498856 
Trace 2: 1630578 1705653 1963514 2233790 2541793 3013456 
Trace 3: 1730037 2295060 3064852 3796391 4925084 5511046 
Trace 4: 0 0 0 0 0 0 
Trace 5: 701210 893855 1107140 1372438 1606058 1851590 
Trace 6: 1769442 2164832 2559756 3036008 3470482 3944966 
Trace 7: 4255500 5096633 6017938 7155608 8154591 9189080 
Best Partition: 64 64 16 256 16 32 64 512 
2000025 check cycles 
Trace 0: 988400 1236730 1766375 2310840 2975547 3590066 
Trace 1: 910175 1158562 1692750 2245302 2914777 3498856 
Trace 2: 1630578 1705653 1963514 2233790 2541793 3013456 
Trace 3: 1730037 2295060 3064852 3796391 4925084 5511046 
Trace 4: 0 0 0 0 0 0 
Trace 5: 701210 893855 1107140 1372438 1606058 1851590 
Trace 6: 1769442 2164832 2559756 3036008 3470482 3944966 
Trace 7: 4347785 5206894 6147747 7310309 8330856 9387820 
Best Partition: 64 64 16 256 16 32 64 512 
2000015 check cycles 
Trace 0: 988400 1236730 1766375 2310840 2975547 3590066 
Trace 1: 910175 1158562 1692750 2245302 2914777 3498856 
Trace 2: 1630578 1705653 1963514 2233790 2541793 3013456 
Trace 3: 1730037 2295060 3064852 3796391 4925084 5511046 
Trace 4: 0 0 0 0 0 0 
Trace 5: 701210 893855 1107140 1372438 1606058 1851590 
Trace 6: 1769442 2164832 2559756 3036008 3470482 3944966 
Trace 7: 4433585 5309639 6269521 7456745 8499059 9578352 
Best Partition: 64 64 16 256 16 32 64 512 
2000047 check cycles 
Trace 0: 988400 1236730 1766375 2310840 2975547 3590066 
Trace 1: 910175 1158562 1692750 2245302 2914777 3498856 
Trace 2: 1630578 1705653 1963514 2233790 2541793 3013456 
Trace 3: 1730037 2295060 3064852 3796391 4925084 5511046 
Trace 4: 0 0 0 0 0 0 
Trace 5: 701210 893855 1107140 1372438 1606058 1851590 
Trace 6: 1769442 2164832 2559756 3036008 3470482 3944966 
Trace 7: 4524889 5418532 6397525 7608610 8671779 9773345 
Best Partition: 64 64 16 256 16 32 64 512 
2000008 check cycles 
Trace 0: 988400 1236730 1766375 2310840 2975547 3590066 
Trace 1: 910175 1158562 1692750 2245302 2914777 3498856 
Trace 2: 1630578 1705653 1963514 2233790 2541793 3013456 
Trace 3: 1730037 2295060 3064852 3796391 4925084 5511046 
Trace 4: 0 0 0 0 0 0 
Trace 5: 701210 893855 1107140 1372438 1606058 1851590 
Trace 6: 1769442 2164832 2559756 3036008 3470482 3944966 
Trace 7: 4616755 5528267 6526912 7762843 8847733 9971986 
Best Partition: 64 64 16 256 16 32 64 512 
2000050 check cycles 
Trace 0: 988400 1236730 1766375 2310840 2975547 3590066 
Trace 1: 910175 1158562 1692750 2245302 2914777 3498856 
Trace 2: 1630578 1705653 1963514 2233790 2541793 3013456 
Trace 3: 1730037 2295060 3064852 3796391 4925084 5511046 
Trace 4: 0 0 0 0 0 0 
Trace 5: 701210 893855 1107140 1372438 1606058 1851590 
Trace 6: 1769442 2164832 2559756 3036008 3470482 3944966 
Trace 7: 4717701 5651201 6674443 7937346 9045837 10192753 
Best Partition: 64 64 16 256 16 32 64 512 
Before Swap:
Trace File 1: 0x31efb030
Trace File 2: 0x31efa970
Gunzip Command 1: xz -dc ./server_030.champsimtrace.xz
Gunzip Command 2: xz -dc ./server_031.champsimtrace.xz
0x31efa970 : 6 curr: 1
0x31efb030 : 7
After Swap:
Trace File 1: 0x31efa970
Trace File 2: 0x31ef91c0
Gunzip Command 1: xz -dc ./server_031.champsimtrace.xz
Gunzip Command 2: xz -dc ./server_038.champsimtrace.xz
Successfully read from the swapped trace file.
again: 0
Finished CPU 0 instructions: 100000003 cycles: 442679313 cumulative IPC: 0.225897 (Simulation time: 0 hr 13 min 49 sec) 

ChampSim completed all CPUs

Region of Interest Statistics
MPKI for 0x31ef91c0 trace file: 130.611
MPKI for 0x31ef9460 trace file: 105.467
MPKI for 0x31ef9700 trace file: 98.4843
MPKI for 0x31ef9bf0 trace file: -nan
MPKI for 0x31efa2b0 trace file: 91.0168
MPKI for 0x31efa970 trace file: 91.9781
MPKI for 0x31efacd0 trace file: 86.0121
MPKI for 0x31efb030 trace file: 114.5

CPU 0 cumulative IPC: 0.225897 instructions: 100000003 cycles: 442679313
check utility
0 0 0 0 0 0 
0 0 0 0 0 0 
1 0 0 0 0 0 
0 0 0 0 0 0 
1 0 0 0 0 0 
1 0 0 0 0 0 
1 0 0 0 0 0 
1 0 0 0 0 0 
ITLB TOTAL     ACCESS:   18072478  HIT:   16935232  MISS:    1137246  HIT %:    93.7073  MISS %:     6.2927   MPKI: 11.3725
ITLB LOAD TRANSLATION ACCESS:   18072478  HIT:   16935232  MISS:    1137246  HIT %:    93.7073  MISS %:     6.2927   MPKI: 11.3725
ITLB PREFETCH  REQUESTED:          0  ISSUED:          0  USEFUL:          0  USELESS:          0
ITLB USEFUL LOAD PREFETCHES:          0 PREFETCH ISSUED TO LOWER LEVEL:          0  ACCURACY: -nan
ITLB TIMELY PREFETCHES:          0 LATE PREFETCHES: 0 DROPPED PREFETCHES: 0
ITLB PREFETCHES SAME FILL-ORIGIN LEVEL: 0 DIFFERENT FILL-ORIGIN LEVEL: 0
ITLB AVERAGE MISS LATENCY: 9.25645 cycles
ITLB RQ	ACCESS:   21435520	FORWARD:          0	MERGED:    3114865	TO_CACHE:   18320655

DTLB TOTAL     ACCESS:   22653307  HIT:   21733073  MISS:     920234  HIT %:    95.9377  MISS %:    4.06225   MPKI: 9.20234
DTLB LOAD TRANSLATION ACCESS:   22653307  HIT:   21733073  MISS:     920234  HIT %:    95.9377  MISS %:    4.06225   MPKI: 9.20234
DTLB PREFETCH  REQUESTED:          0  ISSUED:          0  USEFUL:          0  USELESS:          0
DTLB USEFUL LOAD PREFETCHES:          0 PREFETCH ISSUED TO LOWER LEVEL:          0  ACCURACY: -nan
DTLB TIMELY PREFETCHES:          0 LATE PREFETCHES: 0 DROPPED PREFETCHES: 0
DTLB PREFETCHES SAME FILL-ORIGIN LEVEL: 0 DIFFERENT FILL-ORIGIN LEVEL: 0
DTLB AVERAGE MISS LATENCY: 10.9158 cycles
DTLB RQ	ACCESS:   30181058	FORWARD:          0	MERGED:    7489314	TO_CACHE:   22691744

STLB TOTAL     ACCESS:    2057479  HIT:    2038741  MISS:      18738  HIT %:    99.0893  MISS %:   0.910726   MPKI: 0.18738
STLB LOAD TRANSLATION ACCESS:    2057479  HIT:    2038741  MISS:      18738  HIT %:    99.0893  MISS %:   0.910726   MPKI: 0.18738
STLB PREFETCH  REQUESTED:          0  ISSUED:          0  USEFUL:          0  USELESS:          0
STLB USEFUL LOAD PREFETCHES:          0 PREFETCH ISSUED TO LOWER LEVEL:          0  ACCURACY: -nan
STLB TIMELY PREFETCHES:          0 LATE PREFETCHES: 0 DROPPED PREFETCHES: 0
STLB PREFETCHES SAME FILL-ORIGIN LEVEL: 0 DIFFERENT FILL-ORIGIN LEVEL: 0
STLB AVERAGE MISS LATENCY: 109.034 cycles
STLB RQ	ACCESS:    2057479	FORWARD:          0	MERGED:          0	TO_CACHE:    2057479

STLB Hit, L1D data hit: 0
STLB Hit, L2C data hit: 0
STLB Hit, LLC data hit: 0
STLB Hit, LLC data miss: 0
STLB STLB hints to L2: 0
L1D TOTAL     ACCESS:   29708871  HIT:   28196636  MISS:    1512235  HIT %:    94.9098  MISS %:    5.09018   MPKI: 15.1223
L1D LOAD      ACCESS:   17166897  HIT:   15960975  MISS:    1205922  HIT %:    92.9753  MISS %:    7.02469   MPKI: 12.0592
L1D RFO       ACCESS:   12541974  HIT:   12235661  MISS:     306313  HIT %:    97.5577  MISS %:     2.4423   MPKI: 3.06313
L1D PREFETCH  REQUESTED:          0  ISSUED:          0  USEFUL:          0  USELESS:          0
L1D USEFUL LOAD PREFETCHES:          0 PREFETCH ISSUED TO LOWER LEVEL:          0  ACCURACY: -nan
L1D TIMELY PREFETCHES:          0 LATE PREFETCHES: 0 DROPPED PREFETCHES: 0
L1D PREFETCHES SAME FILL-ORIGIN LEVEL: 0 DIFFERENT FILL-ORIGIN LEVEL: 0
L1D AVERAGE MISS LATENCY: 27.0642 cycles
L1D RQ	ACCESS:   23301959	FORWARD:          0	MERGED:    5995193	TO_CACHE:   17210315
L1D WQ	ACCESS:   13038152	FORWARD:      96451	MERGED:      67409	TO_CACHE:   12970743

L1D UNIQUE REGIONS ACCESSED: 0
L1D REGIONS CONFLICTS: 0
L1D Cross Page Prefetch Requests: 0
L1D Same Page Prefetch Requests: 0
L1D ROI Sum of L1D PQ occupancy: 0
L1D PREFETCHES PUSHED FROM L2C: 0
L1I TOTAL     ACCESS:   20669788  HIT:   13995515  MISS:    6674273  HIT %:      67.71  MISS %:      32.29   MPKI: 66.7427
L1I LOAD      ACCESS:   20669788  HIT:   13995515  MISS:    6674273  HIT %:      67.71  MISS %:      32.29   MPKI: 66.7427
L1I PREFETCH  REQUESTED:          0  ISSUED:          0  USEFUL:          0  USELESS:          0
L1I USEFUL LOAD PREFETCHES:          0 PREFETCH ISSUED TO LOWER LEVEL:          0  ACCURACY: -nan
L1I TIMELY PREFETCHES:          0 LATE PREFETCHES: 0 DROPPED PREFETCHES: 0
L1I PREFETCHES SAME FILL-ORIGIN LEVEL: 0 DIFFERENT FILL-ORIGIN LEVEL: 0
L1I AVERAGE MISS LATENCY: 15.3794 cycles
L1I RQ	ACCESS:   28262567	FORWARD:          0	MERGED:    6827047	TO_CACHE:   21435520

BTB TOTAL     ACCESS:   14428239  HIT:    4254130  MISS:   10174109  HIT %:    29.4847  MISS %:    70.5153   MPKI: 101.741
BTB BRANCH_DIRECT_JUMP	ACCESS:    1056737  HIT:     297780  MISS:     758957
BTB BRANCH_INDIRECT	ACCESS:    6192914  HIT:    1822844  MISS:    4370070
BTB BRANCH_CONDITIONAL	ACCESS:    2495145  HIT:    1343754  MISS:    1151391
BTB BRANCH_DIRECT_CALL	ACCESS:    1947657  HIT:     358289  MISS:    1589368
BTB BRANCH_INDIRECT_CALL	ACCESS:     394089  HIT:      80536  MISS:     313553
BTB BRANCH_RETURN	ACCESS:    2341697  HIT:     350927  MISS:    1990770
BTB BRANCH_OTHER ACCESS:          0  HIT:          0  MISS:          0

L2C TOTAL     ACCESS:    8877681  HIT:    8368057  MISS:     509624  HIT %:    94.2595  MISS %:    5.74051   MPKI: 5.09624
L2C LOAD      ACCESS:    7880194  HIT:    7445752  MISS:     434442  HIT %:    94.4869  MISS %:    5.51309   MPKI: 4.34442
L2C DATA LOAD MPKI: 2.17034
L2C INSTRUCTION LOAD MPKI: 2.17408
L2C RFO       ACCESS:     306313  HIT:     246636  MISS:      59677  HIT %:    80.5176  MISS %:    19.4824   MPKI: 0.59677
L2C WRITEBACK ACCESS:     668035  HIT:     663465  MISS:       4570  HIT %:    99.3159  MISS %:   0.684096   MPKI: 0.0457
L2C LOAD TRANSLATION ACCESS:      23139  HIT:      12204  MISS:      10935  HIT %:    52.7421  MISS %:    47.2579   MPKI: 0.10935
L2C PREFETCH  REQUESTED:          0  ISSUED:          0  USEFUL:          0  USELESS:          0
L2C USEFUL LOAD PREFETCHES:          0 PREFETCH ISSUED TO LOWER LEVEL:          0  ACCURACY: -nan
L2C TIMELY PREFETCHES:          0 LATE PREFETCHES: 0 DROPPED PREFETCHES: 0
L2C PREFETCHES SAME FILL-ORIGIN LEVEL: 0 DIFFERENT FILL-ORIGIN LEVEL: 0
L2C AVERAGE MISS LATENCY: 54.8422 cycles
L2C RQ	ACCESS:    8209649	FORWARD:          0	MERGED:          0	TO_CACHE:    8209647
L2C WQ	ACCESS:     668035	FORWARD:          2	MERGED:          0	TO_CACHE:     668035

L2C Instructions Evicting Data 95717
L2C Translations Evicting Data 7755
L2C Data Evicting Data 178320
L2C Instructions Evicting Instructions 118678
L2C Translations Evicting Instructions 2615
L2C Data Evicting Instructions 91016
L2C Instructions Evicting Translations 3013
L2C Translations Evicting Translations 565
L2C Data Evicting Translations 7369
L2C Dense regions hint from L2: 0
PSCL5 TOTAL     ACCESS:      18738  HIT:      18738  MISS:          0  HIT %:        100  MISS %:          0   MPKI: 0
PSCL5 LOAD TRANSLATION ACCESS:      18738  HIT:      18738  MISS:          0  HIT %:        100  MISS %:          0   MPKI: 0
PSCL5 PREFETCH  REQUESTED:          0  ISSUED:          0  USEFUL:          0  USELESS:          0
PSCL5 USEFUL LOAD PREFETCHES:          0 PREFETCH ISSUED TO LOWER LEVEL:          0  ACCURACY: -nan
PSCL5 TIMELY PREFETCHES:          0 LATE PREFETCHES: 0 DROPPED PREFETCHES: 0
PSCL5 PREFETCHES SAME FILL-ORIGIN LEVEL: 0 DIFFERENT FILL-ORIGIN LEVEL: 0

PSCL4 TOTAL     ACCESS:      17440  HIT:      17311  MISS:        129  HIT %:    99.2603  MISS %:   0.739679   MPKI: 0.00129
PSCL4 LOAD TRANSLATION ACCESS:      17440  HIT:      17311  MISS:        129  HIT %:    99.2603  MISS %:   0.739679   MPKI: 0.00129
PSCL4 PREFETCH  REQUESTED:          0  ISSUED:          0  USEFUL:          0  USELESS:          0
PSCL4 USEFUL LOAD PREFETCHES:          0 PREFETCH ISSUED TO LOWER LEVEL:          0  ACCURACY: -nan
PSCL4 TIMELY PREFETCHES:          0 LATE PREFETCHES: 0 DROPPED PREFETCHES: 0
PSCL4 PREFETCHES SAME FILL-ORIGIN LEVEL: 0 DIFFERENT FILL-ORIGIN LEVEL: 0

PSCL3 TOTAL     ACCESS:      18502  HIT:      18298  MISS:        204  HIT %:    98.8974  MISS %:    1.10258   MPKI: 0.00204
PSCL3 LOAD TRANSLATION ACCESS:      18502  HIT:      18298  MISS:        204  HIT %:    98.8974  MISS %:    1.10258   MPKI: 0.00204
PSCL3 PREFETCH  REQUESTED:          0  ISSUED:          0  USEFUL:          0  USELESS:          0
PSCL3 USEFUL LOAD PREFETCHES:          0 PREFETCH ISSUED TO LOWER LEVEL:          0  ACCURACY: -nan
PSCL3 TIMELY PREFETCHES:          0 LATE PREFETCHES: 0 DROPPED PREFETCHES: 0
PSCL3 PREFETCHES SAME FILL-ORIGIN LEVEL: 0 DIFFERENT FILL-ORIGIN LEVEL: 0

PSCL2 TOTAL     ACCESS:      18738  HIT:      14476  MISS:       4262  HIT %:    77.2548  MISS %:    22.7452   MPKI: 0.04262
PSCL2 LOAD TRANSLATION ACCESS:      18738  HIT:      14476  MISS:       4262  HIT %:    77.2548  MISS %:    22.7452   MPKI: 0.04262
PSCL2 PREFETCH  REQUESTED:          0  ISSUED:          0  USEFUL:          0  USELESS:          0
PSCL2 USEFUL LOAD PREFETCHES:          0 PREFETCH ISSUED TO LOWER LEVEL:          0  ACCURACY: -nan
PSCL2 TIMELY PREFETCHES:          0 LATE PREFETCHES: 0 DROPPED PREFETCHES: 0
PSCL2 PREFETCHES SAME FILL-ORIGIN LEVEL: 0 DIFFERENT FILL-ORIGIN LEVEL: 0

LLC TOTAL     ACCESS:     642007  HIT:     556583  MISS:      85424  HIT %:    86.6942  MISS %:    13.3058   MPKI: 0.85424
LLC LOAD      ACCESS:     434438  HIT:     367003  MISS:      67435  HIT %:    84.4776  MISS %:    15.5224   MPKI: 0.67435
LLC RFO       ACCESS:      59677  HIT:      46197  MISS:      13480  HIT %:    77.4117  MISS %:    22.5883   MPKI: 0.1348
LLC WRITEBACK ACCESS:     136957  HIT:     136725  MISS:        232  HIT %:    99.8306  MISS %:   0.169396   MPKI: 0.00232
LLC LOAD TRANSLATION ACCESS:      10935  HIT:       6658  MISS:       4277  HIT %:    60.8871  MISS %:    39.1129   MPKI: 0.04277
LLC PREFETCH  REQUESTED:          0  ISSUED:          0  USEFUL:          0  USELESS:          0
LLC USEFUL LOAD PREFETCHES:          0 PREFETCH ISSUED TO LOWER LEVEL:          0  ACCURACY: -nan
LLC TIMELY PREFETCHES:          0 LATE PREFETCHES: 0 DROPPED PREFETCHES: 0
LLC PREFETCHES SAME FILL-ORIGIN LEVEL: 0 DIFFERENT FILL-ORIGIN LEVEL: 0
LLC AVERAGE MISS LATENCY: 149.488 cycles
LLC RQ	ACCESS:     505054	FORWARD:          0	MERGED:          0	TO_CACHE:     505050
LLC WQ	ACCESS:     136957	FORWARD:          4	MERGED:          0	TO_CACHE:     136957

LLC Dense regions hint to LLC: 0

RAW hits: 609829
Loads Generated: 23911788
Loads sent to L1D: 23301959
Stores Generated: 13038156
Stores sent to L1D: 13038152
Major fault: 0 Minor fault: 9035
Allocated PAGES: 9035

DRAM Statistics
 CHANNEL 0
 RQ ROW_BUFFER_HIT:      22213  ROW_BUFFER_MISS:      62978
 DBUS_CONGESTED:         20
 WQ ROW_BUFFER_HIT:       5183  ROW_BUFFER_MISS:      18876  FULL:          0

 AVG_CONGESTED_CYCLE: 6
 All warmup complete: 2
Channel 0 Bank busy for read cycles: 0
Channel 0 Bank busy for write cycles: 0
Channel 0
Rank 0
0banks busy for read cycles: 430972808
0banks busy for write cycles: 15199
1banks busy for read cycles: 7183673
1banks busy for write cycles: 2597276
2banks busy for read cycles: 806173
2banks busy for write cycles: 462574
3banks busy for read cycles: 175867
3banks busy for write cycles: 121363
4banks busy for read cycles: 65807
4banks busy for write cycles: 57084
5banks busy for read cycles: 40145
5banks busy for write cycles: 28709
6banks busy for read cycles: 33635
6banks busy for write cycles: 22163
7banks busy for read cycles: 34492
7banks busy for write cycles: 11170
8banks busy for read cycles: 40861
8banks busy for write cycles: 10315

CPU 0 Branch Prediction Accuracy: 96.0748% MPKI: 6.88744 Average ROB Occupancy at Mispredict: 6.32067
Branch types
NOT_BRANCH: 82453394 82.4534%
BRANCH_DIRECT_JUMP: 1056737 1.05674%
BRANCH_INDIRECT: 6192914 6.19291%
BRANCH_CONDITIONAL: 5613473 5.61347%
BRANCH_DIRECT_CALL: 1947657 1.94766%
BRANCH_INDIRECT_CALL: 394089 0.394089%
BRANCH_RETURN: 2341697 2.3417%
BRANCH_OTHER: 0 0%

DRAM PAGES: 1048576
Allocated PAGES: 9035
