
*** ChampSim Multicore Out-of-Order Simulator ***

Warmup Instructions: 25000000
Simulation Instructions: 100000000
Number of CPUs: 1
LLC sets: 2048
LLC ways: 16
Off-chip DRAM Size: 4096 MB Channels: 1 Width: 64-bit Data Rate: 6400 MT/s
CPU 0 runs ./server_036.champsimtrace.xz
AAAAA
.xz
./server_036.champsimtrace.xz 0
ABDUBDIBDIBDIBD
0x13513f20
CPU 0 runs ./server_037.champsimtrace.xz
AAAAA
.xz
./server_037.champsimtrace.xz 1
0x135141c0
CPU 0 runs ./server_038.champsimtrace.xz
AAAAA
.xz
./server_038.champsimtrace.xz 2
0x13514460
CPU 0 runs ./server_039.champsimtrace.xz
AAAAA
.xz
./server_039.champsimtrace.xz 3
0x13514700
CPU 0 runs ./server_034.champsimtrace.xz
AAAAA
.xz
./server_034.champsimtrace.xz 4
0x13514bf0
CPU 0 runs ./server_033.champsimtrace.xz
AAAAA
.xz
./server_033.champsimtrace.xz 5
0x135152b0
CPU 0 runs ./server_032.champsimtrace.xz
AAAAA
.xz
./server_032.champsimtrace.xz 6
0x13515970
CPU 0 runs ./server_031.champsimtrace.xz
AAAAA
.xz
./server_031.champsimtrace.xz 7
0x13516030
CPU 0 Bimodal branch predictor
BTB has LRU replacement policy
ITLB has LRU replacement policy
DTLB has LRU replacement policy
STLB has LRU replacement policy
L1I has LRU replacement policy
L1D has LRU replacement policy
L2C has LRU replacement policy
LLC has LRU replacement policy
Heartbeat CPU 0 instructions: 10000000 cycles: 2718068 heartbeat IPC: 3.67908 cumulative IPC: 3.67908 (Simulation time: 0 hr 0 min 37 sec) 
Heartbeat CPU 0 instructions: 20000002 cycles: 5435387 heartbeat IPC: 3.6801 cumulative IPC: 3.67959 (Simulation time: 0 hr 1 min 12 sec) 

Warmup complete CPU 0 instructions: 25000001 cycles: 6793648 (Simulation time: 0 hr 1 min 26 sec) 

Before Swap:
Trace File 1: 0x13515cd0
Trace File 2: 0x135141c0
Gunzip Command 1: xz -dc ./server_036.champsimtrace.xz
Gunzip Command 2: xz -dc ./server_037.champsimtrace.xz
0x135141c0 : 1 curr: 0
0x13515cd0 : 0
After Swap:
Trace File 1: 0x135141c0
Trace File 2: 0x13514460
Gunzip Command 1: xz -dc ./server_037.champsimtrace.xz
Gunzip Command 2: xz -dc ./server_038.champsimtrace.xz
Successfully read from the swapped trace file.
again: 4
2000042 check cycles 
Trace 0: 0 0 0 0 0 0 
Trace 1: 19338 24637 35973 47623 62066 74413 
Trace 2: 0 0 0 0 0 0 
Trace 3: 0 0 0 0 0 0 
Trace 4: 0 0 0 0 0 0 
Trace 5: 0 0 0 0 0 0 
Trace 6: 0 0 0 0 0 0 
Trace 7: 0 0 0 0 0 0 
Best Partition: 16 512 16 16 16 64 128 256 
2000023 check cycles 
Trace 0: 0 0 0 0 0 0 
Trace 1: 56019 70210 100488 132070 170482 203641 
Trace 2: 0 0 0 0 0 0 
Trace 3: 0 0 0 0 0 0 
Trace 4: 0 0 0 0 0 0 
Trace 5: 0 0 0 0 0 0 
Trace 6: 0 0 0 0 0 0 
Trace 7: 0 0 0 0 0 0 
Best Partition: 16 512 16 16 16 64 128 256 
2000002 check cycles 
Trace 0: 0 0 0 0 0 0 
Trace 1: 94467 119232 171933 227142 294260 351939 
Trace 2: 0 0 0 0 0 0 
Trace 3: 0 0 0 0 0 0 
Trace 4: 0 0 0 0 0 0 
Trace 5: 0 0 0 0 0 0 
Trace 6: 0 0 0 0 0 0 
Trace 7: 0 0 0 0 0 0 
Best Partition: 16 512 16 16 16 64 128 256 
2000005 check cycles 
Trace 0: 0 0 0 0 0 0 
Trace 1: 132843 168202 243530 322459 418397 500942 
Trace 2: 0 0 0 0 0 0 
Trace 3: 0 0 0 0 0 0 
Trace 4: 0 0 0 0 0 0 
Trace 5: 0 0 0 0 0 0 
Trace 6: 0 0 0 0 0 0 
Trace 7: 0 0 0 0 0 0 
Best Partition: 16 512 16 16 16 64 128 256 
2000012 check cycles 
Trace 0: 0 0 0 0 0 0 
Trace 1: 175065 220953 318673 421051 545427 652594 
Trace 2: 0 0 0 0 0 0 
Trace 3: 0 0 0 0 0 0 
Trace 4: 0 0 0 0 0 0 
Trace 5: 0 0 0 0 0 0 
Trace 6: 0 0 0 0 0 0 
Trace 7: 0 0 0 0 0 0 
Best Partition: 16 512 16 16 16 64 128 256 
2000003 check cycles 
Trace 0: 0 0 0 0 0 0 
Trace 1: 214422 271181 391324 516546 669557 801724 
Trace 2: 0 0 0 0 0 0 
Trace 3: 0 0 0 0 0 0 
Trace 4: 0 0 0 0 0 0 
Trace 5: 0 0 0 0 0 0 
Trace 6: 0 0 0 0 0 0 
Trace 7: 0 0 0 0 0 0 
Best Partition: 16 512 16 16 16 64 128 256 
2000047 check cycles 
Trace 0: 0 0 0 0 0 0 
Trace 1: 253869 321482 464098 612295 793881 950990 
Trace 2: 0 0 0 0 0 0 
Trace 3: 0 0 0 0 0 0 
Trace 4: 0 0 0 0 0 0 
Trace 5: 0 0 0 0 0 0 
Trace 6: 0 0 0 0 0 0 
Trace 7: 0 0 0 0 0 0 
Best Partition: 16 512 16 16 16 64 128 256 
2000021 check cycles 
Trace 0: 0 0 0 0 0 0 
Trace 1: 293366 371921 537196 708394 918904 1101075 
Trace 2: 0 0 0 0 0 0 
Trace 3: 0 0 0 0 0 0 
Trace 4: 0 0 0 0 0 0 
Trace 5: 0 0 0 0 0 0 
Trace 6: 0 0 0 0 0 0 
Trace 7: 0 0 0 0 0 0 
Best Partition: 16 512 16 16 16 64 128 256 
Before Swap:
Trace File 1: 0x135141c0
Trace File 2: 0x135152b0
Gunzip Command 1: xz -dc ./server_037.champsimtrace.xz
Gunzip Command 2: xz -dc ./server_033.champsimtrace.xz
0x135152b0 : 5 curr: 4
0x135141c0 : 1
After Swap:
Trace File 1: 0x135152b0
Trace File 2: 0x13515970
Gunzip Command 1: xz -dc ./server_033.champsimtrace.xz
Gunzip Command 2: xz -dc ./server_032.champsimtrace.xz
Successfully read from the swapped trace file.
again: 0
Heartbeat CPU 0 instructions: 30000002 cycles: 23776036 heartbeat IPC: 0.545237 cumulative IPC: 0.294423 (Simulation time: 0 hr 2 min 13 sec) 
2000025 check cycles 
Trace 0: 0 0 0 0 0 0 
Trace 1: 312186 395859 572929 757483 983038 1177773 
Trace 2: 0 0 0 0 0 0 
Trace 3: 0 0 0 0 0 0 
Trace 4: 0 0 0 0 0 0 
Trace 5: 16616 21170 27326 33778 44202 49884 
Trace 6: 0 0 0 0 0 0 
Trace 7: 0 0 0 0 0 0 
Best Partition: 16 512 16 16 16 256 64 128 
2000023 check cycles 
Trace 0: 0 0 0 0 0 0 
Trace 1: 312186 395859 572929 757483 983038 1177773 
Trace 2: 0 0 0 0 0 0 
Trace 3: 0 0 0 0 0 0 
Trace 4: 0 0 0 0 0 0 
Trace 5: 68800 87558 112545 139594 183010 206299 
Trace 6: 0 0 0 0 0 0 
Trace 7: 0 0 0 0 0 0 
Best Partition: 16 512 16 16 16 256 64 128 
2000018 check cycles 
Trace 0: 0 0 0 0 0 0 
Trace 1: 312186 395859 572929 757483 983038 1177773 
Trace 2: 0 0 0 0 0 0 
Trace 3: 0 0 0 0 0 0 
Trace 4: 0 0 0 0 0 0 
Trace 5: 118079 155729 203822 253950 327787 367313 
Trace 6: 0 0 0 0 0 0 
Trace 7: 0 0 0 0 0 0 
Best Partition: 16 512 16 16 16 256 64 128 
2000001 check cycles 
Trace 0: 0 0 0 0 0 0 
Trace 1: 312186 395859 572929 757483 983038 1177773 
Trace 2: 0 0 0 0 0 0 
Trace 3: 0 0 0 0 0 0 
Trace 4: 0 0 0 0 0 0 
Trace 5: 170994 222765 289731 360336 467304 524381 
Trace 6: 0 0 0 0 0 0 
Trace 7: 0 0 0 0 0 0 
Best Partition: 16 512 16 16 16 256 64 128 
2000180 check cycles 
Trace 0: 0 0 0 0 0 0 
Trace 1: 312186 395859 572929 757483 983038 1177773 
Trace 2: 0 0 0 0 0 0 
Trace 3: 0 0 0 0 0 0 
Trace 4: 0 0 0 0 0 0 
Trace 5: 224119 290158 376114 467278 607435 682211 
Trace 6: 0 0 0 0 0 0 
Trace 7: 0 0 0 0 0 0 
Best Partition: 16 512 16 16 16 256 64 128 
2000034 check cycles 
Trace 0: 0 0 0 0 0 0 
Trace 1: 312186 395859 572929 757483 983038 1177773 
Trace 2: 0 0 0 0 0 0 
Trace 3: 0 0 0 0 0 0 
Trace 4: 0 0 0 0 0 0 
Trace 5: 277302 357557 462474 574128 747355 839822 
Trace 6: 0 0 0 0 0 0 
Trace 7: 0 0 0 0 0 0 
Best Partition: 16 512 16 16 16 256 64 128 
2000024 check cycles 
Trace 0: 0 0 0 0 0 0 
Trace 1: 312186 395859 572929 757483 983038 1177773 
Trace 2: 0 0 0 0 0 0 
Trace 3: 0 0 0 0 0 0 
Trace 4: 0 0 0 0 0 0 
Trace 5: 330442 424965 548872 681091 887501 997670 
Trace 6: 0 0 0 0 0 0 
Trace 7: 0 0 0 0 0 0 
Best Partition: 16 512 16 16 16 256 64 128 
2000009 check cycles 
Trace 0: 0 0 0 0 0 0 
Trace 1: 312186 395859 572929 757483 983038 1177773 
Trace 2: 0 0 0 0 0 0 
Trace 3: 0 0 0 0 0 0 
Trace 4: 0 0 0 0 0 0 
Trace 5: 381665 489842 631617 783017 1020647 1148414 
Trace 6: 0 0 0 0 0 0 
Trace 7: 0 0 0 0 0 0 
Best Partition: 16 512 16 16 16 256 64 128 
2000053 check cycles 
Trace 0: 0 0 0 0 0 0 
Trace 1: 312186 395859 572929 757483 983038 1177773 
Trace 2: 0 0 0 0 0 0 
Trace 3: 0 0 0 0 0 0 
Trace 4: 0 0 0 0 0 0 
Trace 5: 434446 556824 717503 889463 1160329 1305653 
Trace 6: 0 0 0 0 0 0 
Trace 7: 0 0 0 0 0 0 
Best Partition: 16 512 16 16 16 256 64 128 
2000029 check cycles 
Trace 0: 0 0 0 0 0 0 
Trace 1: 312186 395859 572929 757483 983038 1177773 
Trace 2: 0 0 0 0 0 0 
Trace 3: 0 0 0 0 0 0 
Trace 4: 0 0 0 0 0 0 
Trace 5: 489849 627453 808148 1002124 1308604 1472549 
Trace 6: 0 0 0 0 0 0 
Trace 7: 0 0 0 0 0 0 
Best Partition: 16 512 16 16 16 256 64 128 
2000026 check cycles 
Trace 0: 0 0 0 0 0 0 
Trace 1: 312186 395859 572929 757483 983038 1177773 
Trace 2: 0 0 0 0 0 0 
Trace 3: 0 0 0 0 0 0 
Trace 4: 0 0 0 0 0 0 
Trace 5: 544410 702262 908136 1127196 1467034 1649112 
Trace 6: 0 0 0 0 0 0 
Trace 7: 0 0 0 0 0 0 
Best Partition: 16 512 16 16 16 256 64 128 
Before Swap:
Trace File 1: 0x135152b0
Trace File 2: 0x13515cd0
Gunzip Command 1: xz -dc ./server_033.champsimtrace.xz
Gunzip Command 2: xz -dc ./server_036.champsimtrace.xz
0x13515cd0 : 0 curr: 0
0x135152b0 : 5
After Swap:
Trace File 1: 0x13515cd0
Trace File 2: 0x13514460
Gunzip Command 1: xz -dc ./server_036.champsimtrace.xz
Gunzip Command 2: xz -dc ./server_038.champsimtrace.xz
Successfully read from the swapped trace file.
again: 4
2000002 check cycles 
Trace 0: 7362 7521 8431 9309 10764 12744 
Trace 1: 312186 395859 572929 757483 983038 1177773 
Trace 2: 0 0 0 0 0 0 
Trace 3: 0 0 0 0 0 0 
Trace 4: 0 0 0 0 0 0 
Trace 5: 591792 762178 984657 1222106 1591970 1789976 
Trace 6: 0 0 0 0 0 0 
Trace 7: 0 0 0 0 0 0 
Best Partition: 128 256 16 16 16 512 16 64 
2000006 check cycles 
Trace 0: 63266 64577 72384 79948 92510 109730 
Trace 1: 312186 395859 572929 757483 983038 1177773 
Trace 2: 0 0 0 0 0 0 
Trace 3: 0 0 0 0 0 0 
Trace 4: 0 0 0 0 0 0 
Trace 5: 591792 762178 984657 1222106 1591970 1789976 
Trace 6: 0 0 0 0 0 0 
Trace 7: 0 0 0 0 0 0 
Best Partition: 128 256 16 16 16 512 16 64 
2000009 check cycles 
Trace 0: 120054 122515 137356 151739 175559 208153 
Trace 1: 312186 395859 572929 757483 983038 1177773 
Trace 2: 0 0 0 0 0 0 
Trace 3: 0 0 0 0 0 0 
Trace 4: 0 0 0 0 0 0 
Trace 5: 591792 762178 984657 1222106 1591970 1789976 
Trace 6: 0 0 0 0 0 0 
Trace 7: 0 0 0 0 0 0 
Best Partition: 128 256 16 16 16 512 16 64 
2000021 check cycles 
Trace 0: 175985 179605 201352 222438 257368 305196 
Trace 1: 312186 395859 572929 757483 983038 1177773 
Trace 2: 0 0 0 0 0 0 
Trace 3: 0 0 0 0 0 0 
Trace 4: 0 0 0 0 0 0 
Trace 5: 591792 762178 984657 1222106 1591970 1789976 
Trace 6: 0 0 0 0 0 0 
Trace 7: 0 0 0 0 0 0 
Best Partition: 128 256 16 16 16 512 16 64 
2000032 check cycles 
Trace 0: 232340 237111 265808 293652 339863 403101 
Trace 1: 312186 395859 572929 757483 983038 1177773 
Trace 2: 0 0 0 0 0 0 
Trace 3: 0 0 0 0 0 0 
Trace 4: 0 0 0 0 0 0 
Trace 5: 591792 762178 984657 1222106 1591970 1789976 
Trace 6: 0 0 0 0 0 0 
Trace 7: 0 0 0 0 0 0 
Best Partition: 128 256 16 16 16 512 16 64 
2000021 check cycles 
Trace 0: 288669 294588 330250 364839 422123 500527 
Trace 1: 312186 395859 572929 757483 983038 1177773 
Trace 2: 0 0 0 0 0 0 
Trace 3: 0 0 0 0 0 0 
Trace 4: 0 0 0 0 0 0 
Trace 5: 591792 762178 984657 1222106 1591970 1789976 
Trace 6: 0 0 0 0 0 0 
Trace 7: 0 0 0 0 0 0 
Best Partition: 128 256 16 16 16 512 16 64 
2000012 check cycles 
Trace 0: 344595 351669 394264 435575 503995 597673 
Trace 1: 312186 395859 572929 757483 983038 1177773 
Trace 2: 0 0 0 0 0 0 
Trace 3: 0 0 0 0 0 0 
Trace 4: 0 0 0 0 0 0 
Trace 5: 591792 762178 984657 1222106 1591970 1789976 
Trace 6: 0 0 0 0 0 0 
Trace 7: 0 0 0 0 0 0 
Best Partition: 128 256 16 16 16 512 16 64 
2000009 check cycles 
Trace 0: 401376 409597 459190 507298 586952 695978 
Trace 1: 312186 395859 572929 757483 983038 1177773 
Trace 2: 0 0 0 0 0 0 
Trace 3: 0 0 0 0 0 0 
Trace 4: 0 0 0 0 0 0 
Trace 5: 591792 762178 984657 1222106 1591970 1789976 
Trace 6: 0 0 0 0 0 0 
Trace 7: 0 0 0 0 0 0 
Best Partition: 128 256 16 16 16 512 16 64 
2000010 check cycles 
Trace 0: 457294 466674 523173 577970 668744 792996 
Trace 1: 312186 395859 572929 757483 983038 1177773 
Trace 2: 0 0 0 0 0 0 
Trace 3: 0 0 0 0 0 0 
Trace 4: 0 0 0 0 0 0 
Trace 5: 591792 762178 984657 1222106 1591970 1789976 
Trace 6: 0 0 0 0 0 0 
Trace 7: 0 0 0 0 0 0 
Best Partition: 128 256 16 16 16 512 16 64 
2000001 check cycles 
Trace 0: 514093 524624 588073 649631 751672 891326 
Trace 1: 312186 395859 572929 757483 983038 1177773 
Trace 2: 0 0 0 0 0 0 
Trace 3: 0 0 0 0 0 0 
Trace 4: 0 0 0 0 0 0 
Trace 5: 591792 762178 984657 1222106 1591970 1789976 
Trace 6: 0 0 0 0 0 0 
Trace 7: 0 0 0 0 0 0 
Best Partition: 128 256 16 16 16 512 16 64 
2000067 check cycles 
Trace 0: 588115 610235 698403 773751 899734 1064068 
Trace 1: 312186 395859 572929 757483 983038 1177773 
Trace 2: 0 0 0 0 0 0 
Trace 3: 0 0 0 0 0 0 
Trace 4: 0 0 0 0 0 0 
Trace 5: 591792 762178 984657 1222106 1591970 1789976 
Trace 6: 0 0 0 0 0 0 
Trace 7: 0 0 0 0 0 0 
Best Partition: 128 256 16 16 16 512 16 64 
Heartbeat CPU 0 instructions: 40000000 cycles: 67734382 heartbeat IPC: 0.227488 cumulative IPC: 0.246141 (Simulation time: 0 hr 3 min 48 sec) 
Before Swap:
Trace File 1: 0x13515cd0
Trace File 2: 0x135141c0
Gunzip Command 1: xz -dc ./server_036.champsimtrace.xz
Gunzip Command 2: xz -dc ./server_037.champsimtrace.xz
0x135141c0 : 1 curr: 4
0x13515cd0 : 0
After Swap:
Trace File 1: 0x135141c0
Trace File 2: 0x13515970
Gunzip Command 1: xz -dc ./server_037.champsimtrace.xz
Gunzip Command 2: xz -dc ./server_032.champsimtrace.xz
Successfully read from the swapped trace file.
again: 3
2000010 check cycles 
Trace 0: 643962 693948 887973 1009470 1159442 1341826 
Trace 1: 323871 410839 594592 785813 1019801 1222065 
Trace 2: 0 0 0 0 0 0 
Trace 3: 0 0 0 0 0 0 
Trace 4: 0 0 0 0 0 0 
Trace 5: 591792 762178 984657 1222106 1591970 1789976 
Trace 6: 0 0 0 0 0 0 
Trace 7: 0 0 0 0 0 0 
Best Partition: 128 512 16 16 16 256 16 64 
2000033 check cycles 
Trace 0: 643962 693948 887973 1009470 1159442 1341826 
Trace 1: 358691 455215 659646 872672 1133080 1357895 
Trace 2: 0 0 0 0 0 0 
Trace 3: 0 0 0 0 0 0 
Trace 4: 0 0 0 0 0 0 
Trace 5: 591792 762178 984657 1222106 1591970 1789976 
Trace 6: 0 0 0 0 0 0 
Trace 7: 0 0 0 0 0 0 
Best Partition: 128 512 16 16 16 256 16 64 
2000002 check cycles 
Trace 0: 643962 693948 887973 1009470 1159442 1341826 
Trace 1: 396780 503919 730737 967155 1256140 1505772 
Trace 2: 0 0 0 0 0 0 
Trace 3: 0 0 0 0 0 0 
Trace 4: 0 0 0 0 0 0 
Trace 5: 591792 762178 984657 1222106 1591970 1789976 
Trace 6: 0 0 0 0 0 0 
Trace 7: 0 0 0 0 0 0 
Best Partition: 128 512 16 16 16 256 16 64 
2000032 check cycles 
Trace 0: 643962 693948 887973 1009470 1159442 1341826 
Trace 1: 435217 552834 801990 1061640 1378977 1653193 
Trace 2: 0 0 0 0 0 0 
Trace 3: 0 0 0 0 0 0 
Trace 4: 0 0 0 0 0 0 
Trace 5: 591792 762178 984657 1222106 1591970 1789976 
Trace 6: 0 0 0 0 0 0 
Trace 7: 0 0 0 0 0 0 
Best Partition: 128 512 16 16 16 256 16 64 
2000005 check cycles 
Trace 0: 643962 693948 887973 1009470 1159442 1341826 
Trace 1: 473845 602102 874111 1157691 1504339 1803646 
Trace 2: 0 0 0 0 0 0 
Trace 3: 0 0 0 0 0 0 
Trace 4: 0 0 0 0 0 0 
Trace 5: 591792 762178 984657 1222106 1591970 1789976 
Trace 6: 0 0 0 0 0 0 
Trace 7: 0 0 0 0 0 0 
Best Partition: 128 512 16 16 16 256 16 64 
2000051 check cycles 
Trace 0: 643962 693948 887973 1009470 1159442 1341826 
Trace 1: 512424 651328 946149 1253877 1629742 1954087 
Trace 2: 0 0 0 0 0 0 
Trace 3: 0 0 0 0 0 0 
Trace 4: 0 0 0 0 0 0 
Trace 5: 591792 762178 984657 1222106 1591970 1789976 
Trace 6: 0 0 0 0 0 0 
Trace 7: 0 0 0 0 0 0 
Best Partition: 128 512 16 16 16 256 16 64 
2000010 check cycles 
Trace 0: 643962 693948 887973 1009470 1159442 1341826 
Trace 1: 555190 704855 1022115 1352889 1757130 2106425 
Trace 2: 0 0 0 0 0 0 
Trace 3: 0 0 0 0 0 0 
Trace 4: 0 0 0 0 0 0 
Trace 5: 591792 762178 984657 1222106 1591970 1789976 
Trace 6: 0 0 0 0 0 0 
Trace 7: 0 0 0 0 0 0 
Best Partition: 128 512 16 16 16 256 16 64 
2000059 check cycles 
Trace 0: 643962 693948 887973 1009470 1159442 1341826 
Trace 1: 594048 754574 1094266 1447694 1880480 2254793 
Trace 2: 0 0 0 0 0 0 
Trace 3: 0 0 0 0 0 0 
Trace 4: 0 0 0 0 0 0 
Trace 5: 591792 762178 984657 1222106 1591970 1789976 
Trace 6: 0 0 0 0 0 0 
Trace 7: 0 0 0 0 0 0 
Best Partition: 128 512 16 16 16 256 16 64 
Before Swap:
Trace File 1: 0x135141c0
Trace File 2: 0x13514bf0
Gunzip Command 1: xz -dc ./server_037.champsimtrace.xz
Gunzip Command 2: xz -dc ./server_034.champsimtrace.xz
0x13514bf0 : 4 curr: 3
0x135141c0 : 1
After Swap:
Trace File 1: 0x13514bf0
Trace File 2: 0x13515cd0
Gunzip Command 1: xz -dc ./server_034.champsimtrace.xz
Gunzip Command 2: xz -dc ./server_036.champsimtrace.xz
Successfully read from the swapped trace file.
again: 6
2000044 check cycles 
Trace 0: 643962 693948 887973 1009470 1159442 1341826 
Trace 1: 618559 785479 1139238 1508233 1959041 2348469 
Trace 2: 0 0 0 0 0 0 
Trace 3: 0 0 0 0 0 0 
Trace 4: 11275 14572 19120 23791 31032 35146 
Trace 5: 591792 762178 984657 1222106 1591970 1789976 
Trace 6: 0 0 0 0 0 0 
Trace 7: 0 0 0 0 0 0 
Best Partition: 128 512 16 16 64 256 16 16 
2000015 check cycles 
Trace 0: 643962 693948 887973 1009470 1159442 1341826 
Trace 1: 618559 785479 1139238 1508233 1959041 2348469 
Trace 2: 0 0 0 0 0 0 
Trace 3: 0 0 0 0 0 0 
Trace 4: 60137 78034 100970 125213 163157 184341 
Trace 5: 591792 762178 984657 1222106 1591970 1789976 
Trace 6: 0 0 0 0 0 0 
Trace 7: 0 0 0 0 0 0 
Best Partition: 128 512 16 16 64 256 16 16 
2000005 check cycles 
Trace 0: 643962 693948 887973 1009470 1159442 1341826 
Trace 1: 618559 785479 1139238 1508233 1959041 2348469 
Trace 2: 0 0 0 0 0 0 
Trace 3: 0 0 0 0 0 0 
Trace 4: 112733 145465 187861 233090 304153 343406 
Trace 5: 591792 762178 984657 1222106 1591970 1789976 
Trace 6: 0 0 0 0 0 0 
Trace 7: 0 0 0 0 0 0 
Best Partition: 128 512 16 16 64 256 16 16 
2000015 check cycles 
Trace 0: 643962 693948 887973 1009470 1159442 1341826 
Trace 1: 618559 785479 1139238 1508233 1959041 2348469 
Trace 2: 0 0 0 0 0 0 
Trace 3: 0 0 0 0 0 0 
Trace 4: 165189 213123 275418 341911 446187 503319 
Trace 5: 591792 762178 984657 1222106 1591970 1789976 
Trace 6: 0 0 0 0 0 0 
Trace 7: 0 0 0 0 0 0 
Best Partition: 128 512 16 16 64 256 16 16 
2000010 check cycles 
Trace 0: 643962 693948 887973 1009470 1159442 1341826 
Trace 1: 618559 785479 1139238 1508233 1959041 2348469 
Trace 2: 0 0 0 0 0 0 
Trace 3: 0 0 0 0 0 0 
Trace 4: 218187 281389 363595 451353 588941 664035 
Trace 5: 591792 762178 984657 1222106 1591970 1789976 
Trace 6: 0 0 0 0 0 0 
Trace 7: 0 0 0 0 0 0 
Best Partition: 128 512 16 16 64 256 16 16 
2000008 check cycles 
Trace 0: 643962 693948 887973 1009470 1159442 1341826 
Trace 1: 618559 785479 1139238 1508233 1959041 2348469 
Trace 2: 0 0 0 0 0 0 
Trace 3: 0 0 0 0 0 0 
Trace 4: 271472 349497 451186 559991 730780 823776 
Trace 5: 591792 762178 984657 1222106 1591970 1789976 
Trace 6: 0 0 0 0 0 0 
Trace 7: 0 0 0 0 0 0 
Best Partition: 128 512 16 16 64 256 16 16 
2000021 check cycles 
Trace 0: 643962 693948 887973 1009470 1159442 1341826 
Trace 1: 618559 785479 1139238 1508233 1959041 2348469 
Trace 2: 0 0 0 0 0 0 
Trace 3: 0 0 0 0 0 0 
Trace 4: 324181 417581 539319 669924 875128 986228 
Trace 5: 591792 762178 984657 1222106 1591970 1789976 
Trace 6: 0 0 0 0 0 0 
Trace 7: 0 0 0 0 0 0 
Best Partition: 64 512 16 16 128 256 16 16 
2000001 check cycles 
Trace 0: 643962 693948 887973 1009470 1159442 1341826 
Trace 1: 618559 785479 1139238 1508233 1959041 2348469 
Trace 2: 0 0 0 0 0 0 
Trace 3: 0 0 0 0 0 0 
Trace 4: 378277 487178 629468 781907 1021458 1151276 
Trace 5: 591792 762178 984657 1222106 1591970 1789976 
Trace 6: 0 0 0 0 0 0 
Trace 7: 0 0 0 0 0 0 
Best Partition: 64 512 16 16 128 256 16 16 
2000046 check cycles 
Trace 0: 643962 693948 887973 1009470 1159442 1341826 
Trace 1: 618559 785479 1139238 1508233 1959041 2348469 
Trace 2: 0 0 0 0 0 0 
Trace 3: 0 0 0 0 0 0 
Trace 4: 433005 557447 719976 894027 1167089 1315184 
Trace 5: 591792 762178 984657 1222106 1591970 1789976 
Trace 6: 0 0 0 0 0 0 
Trace 7: 0 0 0 0 0 0 
Best Partition: 64 512 16 16 128 256 16 16 
2000006 check cycles 
Trace 0: 643962 693948 887973 1009470 1159442 1341826 
Trace 1: 618559 785479 1139238 1508233 1959041 2348469 
Trace 2: 0 0 0 0 0 0 
Trace 3: 0 0 0 0 0 0 
Trace 4: 487367 627389 810578 1006969 1315564 1482656 
Trace 5: 591792 762178 984657 1222106 1591970 1789976 
Trace 6: 0 0 0 0 0 0 
Trace 7: 0 0 0 0 0 0 
Best Partition: 64 512 16 16 128 256 16 16 
2000005 check cycles 
Trace 0: 643962 693948 887973 1009470 1159442 1341826 
Trace 1: 618559 785479 1139238 1508233 1959041 2348469 
Trace 2: 0 0 0 0 0 0 
Trace 3: 0 0 0 0 0 0 
Trace 4: 540633 696124 899076 1116730 1458801 1644255 
Trace 5: 591792 762178 984657 1222106 1591970 1789976 
Trace 6: 0 0 0 0 0 0 
Trace 7: 0 0 0 0 0 0 
Best Partition: 64 512 16 16 128 256 16 16 
Heartbeat CPU 0 instructions: 50000000 cycles: 106317707 heartbeat IPC: 0.259179 cumulative IPC: 0.251196 (Simulation time: 0 hr 5 min 23 sec) 
Before Swap:
Trace File 1: 0x13514bf0
Trace File 2: 0x13516030
Gunzip Command 1: xz -dc ./server_034.champsimtrace.xz
Gunzip Command 2: xz -dc ./server_031.champsimtrace.xz
0x13516030 : 7 curr: 6
0x13514bf0 : 4
After Swap:
Trace File 1: 0x13516030
Trace File 2: 0x135152b0
Gunzip Command 1: xz -dc ./server_031.champsimtrace.xz
Gunzip Command 2: xz -dc ./server_033.champsimtrace.xz
Successfully read from the swapped trace file.
again: 5
2000261 check cycles 
Trace 0: 643962 693948 887973 1009470 1159442 1341826 
Trace 1: 618559 785479 1139238 1508233 1959041 2348469 
Trace 2: 0 0 0 0 0 0 
Trace 3: 0 0 0 0 0 0 
Trace 4: 583127 750843 969377 1204023 1573132 1772875 
Trace 5: 591792 762178 984657 1222106 1591970 1789976 
Trace 6: 0 0 0 0 0 0 
Trace 7: 4710 5923 7096 8126 9203 10511 
Best Partition: 64 512 16 16 128 256 16 16 
2000027 check cycles 
Trace 0: 643962 693948 887973 1009470 1159442 1341826 
Trace 1: 618559 785479 1139238 1508233 1959041 2348469 
Trace 2: 0 0 0 0 0 0 
Trace 3: 0 0 0 0 0 0 
Trace 4: 583127 750843 969377 1204023 1573132 1772875 
Trace 5: 591792 762178 984657 1222106 1591970 1789976 
Trace 6: 0 0 0 0 0 0 
Trace 7: 62612 76627 91131 108751 124947 142319 
Best Partition: 64 512 16 16 128 256 16 16 
2000014 check cycles 
Trace 0: 643962 693948 887973 1009470 1159442 1341826 
Trace 1: 618559 785479 1139238 1508233 1959041 2348469 
Trace 2: 0 0 0 0 0 0 
Trace 3: 0 0 0 0 0 0 
Trace 4: 583127 750843 969377 1204023 1573132 1772875 
Trace 5: 591792 762178 984657 1222106 1591970 1789976 
Trace 6: 0 0 0 0 0 0 
Trace 7: 128385 156733 186264 222056 254678 290970 
Best Partition: 64 512 16 16 128 256 16 16 
2000016 check cycles 
Trace 0: 643962 693948 887973 1009470 1159442 1341826 
Trace 1: 618559 785479 1139238 1508233 1959041 2348469 
Trace 2: 0 0 0 0 0 0 
Trace 3: 0 0 0 0 0 0 
Trace 4: 583127 750843 969377 1204023 1573132 1772875 
Trace 5: 591792 762178 984657 1222106 1591970 1789976 
Trace 6: 0 0 0 0 0 0 
Trace 7: 203678 249436 294199 347892 397283 451145 
Best Partition: 64 512 16 16 128 256 16 16 
2000004 check cycles 
Trace 0: 643962 693948 887973 1009470 1159442 1341826 
Trace 1: 618559 785479 1139238 1508233 1959041 2348469 
Trace 2: 0 0 0 0 0 0 
Trace 3: 0 0 0 0 0 0 
Trace 4: 583127 750843 969377 1204023 1573132 1772875 
Trace 5: 591792 762178 984657 1222106 1591970 1789976 
Trace 6: 0 0 0 0 0 0 
Trace 7: 271867 333261 393738 466261 532437 605005 
Best Partition: 64 512 16 16 128 256 16 16 
2000001 check cycles 
Trace 0: 643962 693948 887973 1009470 1159442 1341826 
Trace 1: 618559 785479 1139238 1508233 1959041 2348469 
Trace 2: 0 0 0 0 0 0 
Trace 3: 0 0 0 0 0 0 
Trace 4: 583127 750843 969377 1204023 1573132 1772875 
Trace 5: 591792 762178 984657 1222106 1591970 1789976 
Trace 6: 0 0 0 0 0 0 
Trace 7: 339937 415975 491567 582389 665591 756943 
Best Partition: 64 512 16 16 128 256 16 16 
2000020 check cycles 
Trace 0: 643962 693948 887973 1009470 1159442 1341826 
Trace 1: 618559 785479 1139238 1508233 1959041 2348469 
Trace 2: 0 0 0 0 0 0 
Trace 3: 0 0 0 0 0 0 
Trace 4: 583127 750843 969377 1204023 1573132 1772875 
Trace 5: 591792 762178 984657 1222106 1591970 1789976 
Trace 6: 0 0 0 0 0 0 
Trace 7: 408089 499119 590570 701006 802011 912398 
Best Partition: 64 512 16 16 128 256 16 16 
2000001 check cycles 
Trace 0: 643962 693948 887973 1009470 1159442 1341826 
Trace 1: 618559 785479 1139238 1508233 1959041 2348469 
Trace 2: 0 0 0 0 0 0 
Trace 3: 0 0 0 0 0 0 
Trace 4: 583127 750843 969377 1204023 1573132 1772875 
Trace 5: 591792 762178 984657 1222106 1591970 1789976 
Trace 6: 0 0 0 0 0 0 
Trace 7: 478425 584998 692092 821302 939105 1068364 
Best Partition: 64 512 16 16 128 256 16 16 
2000004 check cycles 
Trace 0: 643962 693948 887973 1009470 1159442 1341826 
Trace 1: 618559 785479 1139238 1508233 1959041 2348469 
Trace 2: 0 0 0 0 0 0 
Trace 3: 0 0 0 0 0 0 
Trace 4: 583127 750843 969377 1204023 1573132 1772875 
Trace 5: 591792 762178 984657 1222106 1591970 1789976 
Trace 6: 0 0 0 0 0 0 
Trace 7: 545221 666332 789057 937107 1072259 1220557 
Best Partition: 64 512 16 16 128 256 16 16 
2000038 check cycles 
Trace 0: 643962 693948 887973 1009470 1159442 1341826 
Trace 1: 618559 785479 1139238 1508233 1959041 2348469 
Trace 2: 0 0 0 0 0 0 
Trace 3: 0 0 0 0 0 0 
Trace 4: 583127 750843 969377 1204023 1573132 1772875 
Trace 5: 591792 762178 984657 1222106 1591970 1789976 
Trace 6: 0 0 0 0 0 0 
Trace 7: 630463 770731 910085 1078042 1231113 1398358 
Best Partition: 16 512 16 16 128 256 16 64 
2000007 check cycles 
Trace 0: 643962 693948 887973 1009470 1159442 1341826 
Trace 1: 618559 785479 1139238 1508233 1959041 2348469 
Trace 2: 0 0 0 0 0 0 
Trace 3: 0 0 0 0 0 0 
Trace 4: 583127 750843 969377 1204023 1573132 1772875 
Trace 5: 591792 762178 984657 1222106 1591970 1789976 
Trace 6: 0 0 0 0 0 0 
Trace 7: 701566 857481 1013203 1201134 1372734 1559929 
Best Partition: 16 512 16 16 128 256 16 64 
2000040 check cycles 
Trace 0: 643962 693948 887973 1009470 1159442 1341826 
Trace 1: 618559 785479 1139238 1508233 1959041 2348469 
Trace 2: 0 0 0 0 0 0 
Trace 3: 0 0 0 0 0 0 
Trace 4: 583127 750843 969377 1204023 1573132 1772875 
Trace 5: 591792 762178 984657 1222106 1591970 1789976 
Trace 6: 0 0 0 0 0 0 
Trace 7: 774348 946420 1118364 1325636 1514806 1721911 
Best Partition: 16 512 16 16 128 256 16 64 
2000006 check cycles 
Trace 0: 643962 693948 887973 1009470 1159442 1341826 
Trace 1: 618559 785479 1139238 1508233 1959041 2348469 
Trace 2: 0 0 0 0 0 0 
Trace 3: 0 0 0 0 0 0 
Trace 4: 583127 750843 969377 1204023 1573132 1772875 
Trace 5: 591792 762178 984657 1222106 1591970 1789976 
Trace 6: 0 0 0 0 0 0 
Trace 7: 846281 1034486 1223222 1451074 1658668 1885920 
Best Partition: 16 512 16 16 128 256 16 64 
Before Swap:
Trace File 1: 0x13516030
Trace File 2: 0x13515970
Gunzip Command 1: xz -dc ./server_031.champsimtrace.xz
Gunzip Command 2: xz -dc ./server_032.champsimtrace.xz
0x13515970 : 6 curr: 5
0x13516030 : 7
After Swap:
Trace File 1: 0x13515970
Trace File 2: 0x13514bf0
Gunzip Command 1: xz -dc ./server_032.champsimtrace.xz
Gunzip Command 2: xz -dc ./server_034.champsimtrace.xz
Successfully read from the swapped trace file.
again: 3
2000003 check cycles 
Trace 0: 643962 693948 887973 1009470 1159442 1341826 
Trace 1: 618559 785479 1139238 1508233 1959041 2348469 
Trace 2: 0 0 0 0 0 0 
Trace 3: 0 0 0 0 0 0 
Trace 4: 583127 750843 969377 1204023 1573132 1772875 
Trace 5: 591792 762178 984657 1222106 1591970 1789976 
Trace 6: 24196 30965 38347 47660 55938 64343 
Trace 7: 880903 1077015 1274418 1513059 1730712 1968472 
Best Partition: 64 512 16 16 128 128 32 128 
2000027 check cycles 
Trace 0: 643962 693948 887973 1009470 1159442 1341826 
Trace 1: 618559 785479 1139238 1508233 1959041 2348469 
Trace 2: 0 0 0 0 0 0 
Trace 3: 0 0 0 0 0 0 
Trace 4: 583127 750843 969377 1204023 1573132 1772875 
Trace 5: 591792 762178 984657 1222106 1591970 1789976 
Trace 6: 82008 104543 129636 161075 188782 217482 
Trace 7: 880903 1077015 1274418 1513059 1730712 1968472 
Best Partition: 64 512 16 16 128 128 32 128 
2000027 check cycles 
Trace 0: 643962 693948 887973 1009470 1159442 1341826 
Trace 1: 618559 785479 1139238 1508233 1959041 2348469 
Trace 2: 0 0 0 0 0 0 
Trace 3: 0 0 0 0 0 0 
Trace 4: 583127 750843 969377 1204023 1573132 1772875 
Trace 5: 591792 762178 984657 1222106 1591970 1789976 
Trace 6: 140018 178206 220848 274082 320853 369845 
Trace 7: 880903 1077015 1274418 1513059 1730712 1968472 
Best Partition: 64 512 16 16 128 128 32 128 
2000066 check cycles 
Trace 0: 643962 693948 887973 1009470 1159442 1341826 
Trace 1: 618559 785479 1139238 1508233 1959041 2348469 
Trace 2: 0 0 0 0 0 0 
Trace 3: 0 0 0 0 0 0 
Trace 4: 583127 750843 969377 1204023 1573132 1772875 
Trace 5: 591792 762178 984657 1222106 1591970 1789976 
Trace 6: 198248 252457 312526 387132 452818 522059 
Trace 7: 880903 1077015 1274418 1513059 1730712 1968472 
Best Partition: 64 512 16 16 128 128 32 128 
2000005 check cycles 
Trace 0: 643962 693948 887973 1009470 1159442 1341826 
Trace 1: 618559 785479 1139238 1508233 1959041 2348469 
Trace 2: 0 0 0 0 0 0 
Trace 3: 0 0 0 0 0 0 
Trace 4: 583127 750843 969377 1204023 1573132 1772875 
Trace 5: 591792 762178 984657 1222106 1591970 1789976 
Trace 6: 256661 327015 404866 501509 586625 676142 
Trace 7: 880903 1077015 1274418 1513059 1730712 1968472 
Best Partition: 64 512 16 16 128 128 32 128 
2000033 check cycles 
Trace 0: 643962 693948 887973 1009470 1159442 1341826 
Trace 1: 618559 785479 1139238 1508233 1959041 2348469 
Trace 2: 0 0 0 0 0 0 
Trace 3: 0 0 0 0 0 0 
Trace 4: 583127 750843 969377 1204023 1573132 1772875 
Trace 5: 591792 762178 984657 1222106 1591970 1789976 
Trace 6: 314700 401091 496773 615611 720266 830251 
Trace 7: 880903 1077015 1274418 1513059 1730712 1968472 
Best Partition: 64 512 16 16 128 128 32 128 
2000001 check cycles 
Trace 0: 643962 693948 887973 1009470 1159442 1341826 
Trace 1: 618559 785479 1139238 1508233 1959041 2348469 
Trace 2: 0 0 0 0 0 0 
Trace 3: 0 0 0 0 0 0 
Trace 4: 583127 750843 969377 1204023 1573132 1772875 
Trace 5: 591792 762178 984657 1222106 1591970 1789976 
Trace 6: 373722 476266 589813 730950 855152 985643 
Trace 7: 880903 1077015 1274418 1513059 1730712 1968472 
Best Partition: 64 512 16 16 128 128 32 128 
2000010 check cycles 
Trace 0: 643962 693948 887973 1009470 1159442 1341826 
Trace 1: 618559 785479 1139238 1508233 1959041 2348469 
Trace 2: 0 0 0 0 0 0 
Trace 3: 0 0 0 0 0 0 
Trace 4: 583127 750843 969377 1204023 1573132 1772875 
Trace 5: 591792 762178 984657 1222106 1591970 1789976 
Trace 6: 431860 550458 681755 844814 988233 1138980 
Trace 7: 880903 1077015 1274418 1513059 1730712 1968472 
Best Partition: 64 512 16 16 128 128 32 128 
2000026 check cycles 
Trace 0: 643962 693948 887973 1009470 1159442 1341826 
Trace 1: 618559 785479 1139238 1508233 1959041 2348469 
Trace 2: 0 0 0 0 0 0 
Trace 3: 0 0 0 0 0 0 
Trace 4: 583127 750843 969377 1204023 1573132 1772875 
Trace 5: 591792 762178 984657 1222106 1591970 1789976 
Trace 6: 490408 625104 774066 959299 1122254 1293496 
Trace 7: 880903 1077015 1274418 1513059 1730712 1968472 
Best Partition: 64 512 16 16 128 128 32 128 
2000064 check cycles 
Trace 0: 643962 693948 887973 1009470 1159442 1341826 
Trace 1: 618559 785479 1139238 1508233 1959041 2348469 
Trace 2: 0 0 0 0 0 0 
Trace 3: 0 0 0 0 0 0 
Trace 4: 583127 750843 969377 1204023 1573132 1772875 
Trace 5: 591792 762178 984657 1222106 1591970 1789976 
Trace 6: 549022 699908 866664 1074071 1256564 1448394 
Trace 7: 880903 1077015 1274418 1513059 1730712 1968472 
Best Partition: 64 512 16 16 128 128 32 128 
2000106 check cycles 
Trace 0: 643962 693948 887973 1009470 1159442 1341826 
Trace 1: 618559 785479 1139238 1508233 1959041 2348469 
Trace 2: 0 0 0 0 0 0 
Trace 3: 0 0 0 0 0 0 
Trace 4: 583127 750843 969377 1204023 1573132 1772875 
Trace 5: 591792 762178 984657 1222106 1591970 1789976 
Trace 6: 607721 774734 959405 1189027 1391072 1603313 
Trace 7: 880903 1077015 1274418 1513059 1730712 1968472 
Best Partition: 64 512 16 16 128 128 32 128 
2000012 check cycles 
Trace 0: 643962 693948 887973 1009470 1159442 1341826 
Trace 1: 618559 785479 1139238 1508233 1959041 2348469 
Trace 2: 0 0 0 0 0 0 
Trace 3: 0 0 0 0 0 0 
Trace 4: 583127 750843 969377 1204023 1573132 1772875 
Trace 5: 591792 762178 984657 1222106 1591970 1789976 
Trace 6: 665948 849104 1051641 1303575 1525188 1758004 
Trace 7: 880903 1077015 1274418 1513059 1730712 1968472 
Best Partition: 32 512 16 16 64 128 128 128 
Heartbeat CPU 0 instructions: 60000001 cycles: 155973920 heartbeat IPC: 0.201385 cumulative IPC: 0.234615 (Simulation time: 0 hr 7 min 3 sec) 
Before Swap:
Trace File 1: 0x13515970
Trace File 2: 0x135141c0
Gunzip Command 1: xz -dc ./server_032.champsimtrace.xz
Gunzip Command 2: xz -dc ./server_037.champsimtrace.xz
0x135141c0 : 1 curr: 3
0x13515970 : 6
After Swap:
Trace File 1: 0x135141c0
Trace File 2: 0x13515cd0
Gunzip Command 1: xz -dc ./server_037.champsimtrace.xz
Gunzip Command 2: xz -dc ./server_036.champsimtrace.xz
Successfully read from the swapped trace file.
again: 4
2000037 check cycles 
Trace 0: 643962 693948 887973 1009470 1159442 1341826 
Trace 1: 631238 801804 1163409 1540430 2001203 2399251 
Trace 2: 0 0 0 0 0 0 
Trace 3: 0 0 0 0 0 0 
Trace 4: 583127 750843 969377 1204023 1573132 1772875 
Trace 5: 591792 762178 984657 1222106 1591970 1789976 
Trace 6: 701210 893855 1107140 1372438 1606058 1851590 
Trace 7: 880903 1077015 1274418 1513059 1730712 1968472 
Best Partition: 32 512 16 16 64 128 128 128 
2000020 check cycles 
Trace 0: 643962 693948 887973 1009470 1159442 1341826 
Trace 1: 666952 847277 1229388 1627370 2114201 2534958 
Trace 2: 0 0 0 0 0 0 
Trace 3: 0 0 0 0 0 0 
Trace 4: 583127 750843 969377 1204023 1573132 1772875 
Trace 5: 591792 762178 984657 1222106 1591970 1789976 
Trace 6: 701210 893855 1107140 1372438 1606058 1851590 
Trace 7: 880903 1077015 1274418 1513059 1730712 1968472 
Best Partition: 32 512 16 16 64 128 128 128 
2000001 check cycles 
Trace 0: 643962 693948 887973 1009470 1159442 1341826 
Trace 1: 704945 895865 1300725 1722888 2238806 2684559 
Trace 2: 0 0 0 0 0 0 
Trace 3: 0 0 0 0 0 0 
Trace 4: 583127 750843 969377 1204023 1573132 1772875 
Trace 5: 591792 762178 984657 1222106 1591970 1789976 
Trace 6: 701210 893855 1107140 1372438 1606058 1851590 
Trace 7: 880903 1077015 1274418 1513059 1730712 1968472 
Best Partition: 32 512 16 16 64 128 128 128 
2000001 check cycles 
Trace 0: 643962 693948 887973 1009470 1159442 1341826 
Trace 1: 743222 944870 1372201 1817520 2362096 2832739 
Trace 2: 0 0 0 0 0 0 
Trace 3: 0 0 0 0 0 0 
Trace 4: 583127 750843 969377 1204023 1573132 1772875 
Trace 5: 591792 762178 984657 1222106 1591970 1789976 
Trace 6: 701210 893855 1107140 1372438 1606058 1851590 
Trace 7: 880903 1077015 1274418 1513059 1730712 1968472 
Best Partition: 32 512 16 16 64 128 128 128 
2000019 check cycles 
Trace 0: 643962 693948 887973 1009470 1159442 1341826 
Trace 1: 781440 993610 1443692 1913061 2486747 2982399 
Trace 2: 0 0 0 0 0 0 
Trace 3: 0 0 0 0 0 0 
Trace 4: 583127 750843 969377 1204023 1573132 1772875 
Trace 5: 591792 762178 984657 1222106 1591970 1789976 
Trace 6: 701210 893855 1107140 1372438 1606058 1851590 
Trace 7: 880903 1077015 1274418 1513059 1730712 1968472 
Best Partition: 32 512 16 16 64 128 128 128 
2000003 check cycles 
Trace 0: 643962 693948 887973 1009470 1159442 1341826 
Trace 1: 820193 1042921 1515980 2009631 2612451 3133203 
Trace 2: 0 0 0 0 0 0 
Trace 3: 0 0 0 0 0 0 
Trace 4: 583127 750843 969377 1204023 1573132 1772875 
Trace 5: 591792 762178 984657 1222106 1591970 1789976 
Trace 6: 701210 893855 1107140 1372438 1606058 1851590 
Trace 7: 880903 1077015 1274418 1513059 1730712 1968472 
Best Partition: 32 512 16 16 64 128 128 128 
2000220 check cycles 
Trace 0: 643962 693948 887973 1009470 1159442 1341826 
Trace 1: 859562 1093009 1588282 2104857 2736168 3281693 
Trace 2: 0 0 0 0 0 0 
Trace 3: 0 0 0 0 0 0 
Trace 4: 583127 750843 969377 1204023 1573132 1772875 
Trace 5: 591792 762178 984657 1222106 1591970 1789976 
Trace 6: 701210 893855 1107140 1372438 1606058 1851590 
Trace 7: 880903 1077015 1274418 1513059 1730712 1968472 
Best Partition: 32 512 16 16 64 128 128 128 
2000007 check cycles 
Trace 0: 643962 693948 887973 1009470 1159442 1341826 
Trace 1: 898268 1142428 1660866 2202063 2862905 3433715 
Trace 2: 0 0 0 0 0 0 
Trace 3: 0 0 0 0 0 0 
Trace 4: 583127 750843 969377 1204023 1573132 1772875 
Trace 5: 591792 762178 984657 1222106 1591970 1789976 
Trace 6: 701210 893855 1107140 1372438 1606058 1851590 
Trace 7: 880903 1077015 1274418 1513059 1730712 1968472 
Best Partition: 32 512 16 16 64 128 128 128 
Before Swap:
Trace File 1: 0x135141c0
Trace File 2: 0x13515cd0
Gunzip Command 1: xz -dc ./server_037.champsimtrace.xz
Gunzip Command 2: xz -dc ./server_036.champsimtrace.xz
0x13515cd0 : 0 curr: 4
0x135141c0 : 1
After Swap:
Trace File 1: 0x13515cd0
Trace File 2: 0x13516030
Gunzip Command 1: xz -dc ./server_036.champsimtrace.xz
Gunzip Command 2: xz -dc ./server_031.champsimtrace.xz
Successfully read from the swapped trace file.
again: 0
2000030 check cycles 
Trace 0: 691631 758143 1034648 1200382 1366734 1563364 
Trace 1: 919345 1169344 1699959 2253728 2930130 3514502 
Trace 2: 0 0 0 0 0 0 
Trace 3: 0 0 0 0 0 0 
Trace 4: 583127 750843 969377 1204023 1573132 1772875 
Trace 5: 591792 762178 984657 1222106 1591970 1789976 
Trace 6: 701210 893855 1107140 1372438 1606058 1851590 
Trace 7: 880903 1077015 1274418 1513059 1730712 1968472 
Best Partition: 64 512 16 16 128 128 128 32 
2000033 check cycles 
Trace 0: 878337 978075 1277901 1475575 1673777 1906284 
Trace 1: 919345 1169344 1699959 2253728 2930130 3514502 
Trace 2: 0 0 0 0 0 0 
Trace 3: 0 0 0 0 0 0 
Trace 4: 583127 750843 969377 1204023 1573132 1772875 
Trace 5: 591792 762178 984657 1222106 1591970 1789976 
Trace 6: 701210 893855 1107140 1372438 1606058 1851590 
Trace 7: 880903 1077015 1274418 1513059 1730712 1968472 
Best Partition: 64 512 16 16 128 128 128 32 
2000002 check cycles 
Trace 0: 1039560 1144326 1451969 1685953 1907341 2167410 
Trace 1: 919345 1169344 1699959 2253728 2930130 3514502 
Trace 2: 0 0 0 0 0 0 
Trace 3: 0 0 0 0 0 0 
Trace 4: 583127 750843 969377 1204023 1573132 1772875 
Trace 5: 591792 762178 984657 1222106 1591970 1789976 
Trace 6: 701210 893855 1107140 1372438 1606058 1851590 
Trace 7: 880903 1077015 1274418 1513059 1730712 1968472 
Best Partition: 64 512 16 16 128 128 128 32 
2000008 check cycles 
Trace 0: 1094962 1200848 1515274 1755767 1987969 2262528 
Trace 1: 919345 1169344 1699959 2253728 2930130 3514502 
Trace 2: 0 0 0 0 0 0 
Trace 3: 0 0 0 0 0 0 
Trace 4: 583127 750843 969377 1204023 1573132 1772875 
Trace 5: 591792 762178 984657 1222106 1591970 1789976 
Trace 6: 701210 893855 1107140 1372438 1606058 1851590 
Trace 7: 880903 1077015 1274418 1513059 1730712 1968472 
Best Partition: 128 512 16 16 64 128 128 32 
2000011 check cycles 
Trace 0: 1150760 1257786 1579158 1826320 2069425 2358664 
Trace 1: 919345 1169344 1699959 2253728 2930130 3514502 
Trace 2: 0 0 0 0 0 0 
Trace 3: 0 0 0 0 0 0 
Trace 4: 583127 750843 969377 1204023 1573132 1772875 
Trace 5: 591792 762178 984657 1222106 1591970 1789976 
Trace 6: 701210 893855 1107140 1372438 1606058 1851590 
Trace 7: 880903 1077015 1274418 1513059 1730712 1968472 
Best Partition: 128 512 16 16 64 128 128 32 
2000018 check cycles 
Trace 0: 1206576 1314742 1642992 1896747 2150748 2454672 
Trace 1: 919345 1169344 1699959 2253728 2930130 3514502 
Trace 2: 0 0 0 0 0 0 
Trace 3: 0 0 0 0 0 0 
Trace 4: 583127 750843 969377 1204023 1573132 1772875 
Trace 5: 591792 762178 984657 1222106 1591970 1789976 
Trace 6: 701210 893855 1107140 1372438 1606058 1851590 
Trace 7: 880903 1077015 1274418 1513059 1730712 1968472 
Best Partition: 128 512 16 16 64 128 128 32 
2000002 check cycles 
Trace 0: 1262422 1371736 1706872 1967237 2232174 2550800 
Trace 1: 919345 1169344 1699959 2253728 2930130 3514502 
Trace 2: 0 0 0 0 0 0 
Trace 3: 0 0 0 0 0 0 
Trace 4: 583127 750843 969377 1204023 1573132 1772875 
Trace 5: 591792 762178 984657 1222106 1591970 1789976 
Trace 6: 701210 893855 1107140 1372438 1606058 1851590 
Trace 7: 880903 1077015 1274418 1513059 1730712 1968472 
Best Partition: 128 512 16 16 64 128 128 32 
2000024 check cycles 
Trace 0: 1318236 1428702 1770735 2037702 2313554 2646903 
Trace 1: 919345 1169344 1699959 2253728 2930130 3514502 
Trace 2: 0 0 0 0 0 0 
Trace 3: 0 0 0 0 0 0 
Trace 4: 583127 750843 969377 1204023 1573132 1772875 
Trace 5: 591792 762178 984657 1222106 1591970 1789976 
Trace 6: 701210 893855 1107140 1372438 1606058 1851590 
Trace 7: 880903 1077015 1274418 1513059 1730712 1968472 
Best Partition: 128 512 16 16 64 128 128 32 
2000032 check cycles 
Trace 0: 1374031 1485637 1834548 2108114 2394880 2742890 
Trace 1: 919345 1169344 1699959 2253728 2930130 3514502 
Trace 2: 0 0 0 0 0 0 
Trace 3: 0 0 0 0 0 0 
Trace 4: 583127 750843 969377 1204023 1573132 1772875 
Trace 5: 591792 762178 984657 1222106 1591970 1789976 
Trace 6: 701210 893855 1107140 1372438 1606058 1851590 
Trace 7: 880903 1077015 1274418 1513059 1730712 1968472 
Best Partition: 128 512 16 16 64 128 128 32 
2000006 check cycles 
Trace 0: 1429858 1542607 1898432 2178622 2476318 2839067 
Trace 1: 919345 1169344 1699959 2253728 2930130 3514502 
Trace 2: 0 0 0 0 0 0 
Trace 3: 0 0 0 0 0 0 
Trace 4: 583127 750843 969377 1204023 1573132 1772875 
Trace 5: 591792 762178 984657 1222106 1591970 1789976 
Trace 6: 701210 893855 1107140 1372438 1606058 1851590 
Trace 7: 880903 1077015 1274418 1513059 1730712 1968472 
Best Partition: 128 512 16 16 64 128 128 32 
2000037 check cycles 
Trace 0: 1486111 1600007 1962751 2249579 2558219 2935661 
Trace 1: 919345 1169344 1699959 2253728 2930130 3514502 
Trace 2: 0 0 0 0 0 0 
Trace 3: 0 0 0 0 0 0 
Trace 4: 583127 750843 969377 1204023 1573132 1772875 
Trace 5: 591792 762178 984657 1222106 1591970 1789976 
Trace 6: 701210 893855 1107140 1372438 1606058 1851590 
Trace 7: 880903 1077015 1274418 1513059 1730712 1968472 
Best Partition: 128 512 16 16 64 128 128 32 
Before Swap:
Trace File 1: 0x13515cd0
Trace File 2: 0x135152b0
Gunzip Command 1: xz -dc ./server_036.champsimtrace.xz
Gunzip Command 2: xz -dc ./server_033.champsimtrace.xz
0x135152b0 : 5 curr: 0
0x13515cd0 : 0
After Swap:
Trace File 1: 0x135152b0
Trace File 2: 0x13514460
Gunzip Command 1: xz -dc ./server_033.champsimtrace.xz
Gunzip Command 2: xz -dc ./server_038.champsimtrace.xz
Successfully read from the swapped trace file.
again: 2
Heartbeat CPU 0 instructions: 70000002 cycles: 193775095 heartbeat IPC: 0.264542 cumulative IPC: 0.240666 (Simulation time: 0 hr 8 min 36 sec) 
2000017 check cycles 
Trace 0: 1513354 1627809 1993918 2283972 2597964 2982653 
Trace 1: 919345 1169344 1699959 2253728 2930130 3514502 
Trace 2: 0 0 0 0 0 0 
Trace 3: 0 0 0 0 0 0 
Trace 4: 583127 750843 969377 1204023 1573132 1772875 
Trace 5: 610741 786443 1016020 1260787 1642167 1846494 
Trace 6: 701210 893855 1107140 1372438 1606058 1851590 
Trace 7: 880903 1077015 1274418 1513059 1730712 1968472 
Best Partition: 128 512 16 16 64 128 128 32 
2000015 check cycles 
Trace 0: 1513354 1627809 1993918 2283972 2597964 2982653 
Trace 1: 919345 1169344 1699959 2253728 2930130 3514502 
Trace 2: 0 0 0 0 0 0 
Trace 3: 0 0 0 0 0 0 
Trace 4: 583127 750843 969377 1204023 1573132 1772875 
Trace 5: 661444 850432 1097856 1361773 1773969 1995057 
Trace 6: 701210 893855 1107140 1372438 1606058 1851590 
Trace 7: 880903 1077015 1274418 1513059 1730712 1968472 
Best Partition: 128 512 16 16 64 128 128 32 
2000013 check cycles 
Trace 0: 1513354 1627809 1993918 2283972 2597964 2982653 
Trace 1: 919345 1169344 1699959 2253728 2930130 3514502 
Trace 2: 0 0 0 0 0 0 
Trace 3: 0 0 0 0 0 0 
Trace 4: 583127 750843 969377 1204023 1573132 1772875 
Trace 5: 711993 915010 1180522 1464335 1909168 2147472 
Trace 6: 701210 893855 1107140 1372438 1606058 1851590 
Trace 7: 880903 1077015 1274418 1513059 1730712 1968472 
Best Partition: 128 512 16 16 64 128 128 32 
2000127 check cycles 
Trace 0: 1513354 1627809 1993918 2283972 2597964 2982653 
Trace 1: 919345 1169344 1699959 2253728 2930130 3514502 
Trace 2: 0 0 0 0 0 0 
Trace 3: 0 0 0 0 0 0 
Trace 4: 583127 750843 969377 1204023 1573132 1772875 
Trace 5: 761957 978345 1261766 1564842 2040554 2295892 
Trace 6: 701210 893855 1107140 1372438 1606058 1851590 
Trace 7: 880903 1077015 1274418 1513059 1730712 1968472 
Best Partition: 128 512 16 16 64 128 128 32 
2000043 check cycles 
Trace 0: 1513354 1627809 1993918 2283972 2597964 2982653 
Trace 1: 919345 1169344 1699959 2253728 2930130 3514502 
Trace 2: 0 0 0 0 0 0 
Trace 3: 0 0 0 0 0 0 
Trace 4: 583127 750843 969377 1204023 1573132 1772875 
Trace 5: 814220 1044767 1346725 1670177 2178921 2451601 
Trace 6: 701210 893855 1107140 1372438 1606058 1851590 
Trace 7: 880903 1077015 1274418 1513059 1730712 1968472 
Best Partition: 128 512 16 16 64 128 128 32 
2000009 check cycles 
Trace 0: 1513354 1627809 1993918 2283972 2597964 2982653 
Trace 1: 919345 1169344 1699959 2253728 2930130 3514502 
Trace 2: 0 0 0 0 0 0 
Trace 3: 0 0 0 0 0 0 
Trace 4: 583127 750843 969377 1204023 1573132 1772875 
Trace 5: 865352 1109232 1428985 1771669 2311280 2600667 
Trace 6: 701210 893855 1107140 1372438 1606058 1851590 
Trace 7: 880903 1077015 1274418 1513059 1730712 1968472 
Best Partition: 128 512 16 16 64 128 128 32 
2000009 check cycles 
Trace 0: 1513354 1627809 1993918 2283972 2597964 2982653 
Trace 1: 919345 1169344 1699959 2253728 2930130 3514502 
Trace 2: 0 0 0 0 0 0 
Trace 3: 0 0 0 0 0 0 
Trace 4: 583127 750843 969377 1204023 1573132 1772875 
Trace 5: 916197 1174113 1512519 1875516 2448044 2754810 
Trace 6: 701210 893855 1107140 1372438 1606058 1851590 
Trace 7: 880903 1077015 1274418 1513059 1730712 1968472 
Best Partition: 64 512 16 16 64 256 64 32 
2000005 check cycles 
Trace 0: 1513354 1627809 1993918 2283972 2597964 2982653 
Trace 1: 919345 1169344 1699959 2253728 2930130 3514502 
Trace 2: 0 0 0 0 0 0 
Trace 3: 0 0 0 0 0 0 
Trace 4: 583127 750843 969377 1204023 1573132 1772875 
Trace 5: 966057 1242744 1604509 1990916 2594055 2917249 
Trace 6: 701210 893855 1107140 1372438 1606058 1851590 
Trace 7: 880903 1077015 1274418 1513059 1730712 1968472 
Best Partition: 64 512 16 16 64 256 64 32 
2000022 check cycles 
Trace 0: 1513354 1627809 1993918 2283972 2597964 2982653 
Trace 1: 919345 1169344 1699959 2253728 2930130 3514502 
Trace 2: 0 0 0 0 0 0 
Trace 3: 0 0 0 0 0 0 
Trace 4: 583127 750843 969377 1204023 1573132 1772875 
Trace 5: 1018829 1309893 1690393 2097130 2733209 3073817 
Trace 6: 701210 893855 1107140 1372438 1606058 1851590 
Trace 7: 880903 1077015 1274418 1513059 1730712 1968472 
Best Partition: 64 512 16 16 64 256 64 32 
2000006 check cycles 
Trace 0: 1513354 1627809 1993918 2283972 2597964 2982653 
Trace 1: 919345 1169344 1699959 2253728 2930130 3514502 
Trace 2: 0 0 0 0 0 0 
Trace 3: 0 0 0 0 0 0 
Trace 4: 583127 750843 969377 1204023 1573132 1772875 
Trace 5: 1072354 1378071 1777896 2205390 2875020 3233815 
Trace 6: 701210 893855 1107140 1372438 1606058 1851590 
Trace 7: 880903 1077015 1274418 1513059 1730712 1968472 
Best Partition: 64 512 16 16 64 256 64 32 
2000009 check cycles 
Trace 0: 1513354 1627809 1993918 2283972 2597964 2982653 
Trace 1: 919345 1169344 1699959 2253728 2930130 3514502 
Trace 2: 0 0 0 0 0 0 
Trace 3: 0 0 0 0 0 0 
Trace 4: 583127 750843 969377 1204023 1573132 1772875 
Trace 5: 1127351 1447467 1866312 2314442 3017557 3394791 
Trace 6: 701210 893855 1107140 1372438 1606058 1851590 
Trace 7: 880903 1077015 1274418 1513059 1730712 1968472 
Best Partition: 64 512 16 16 64 256 64 32 
2000033 check cycles 
Trace 0: 1513354 1627809 1993918 2283972 2597964 2982653 
Trace 1: 919345 1169344 1699959 2253728 2930130 3514502 
Trace 2: 0 0 0 0 0 0 
Trace 3: 0 0 0 0 0 0 
Trace 4: 583127 750843 969377 1204023 1573132 1772875 
Trace 5: 1182998 1518395 1957344 2427453 3166224 3562248 
Trace 6: 701210 893855 1107140 1372438 1606058 1851590 
Trace 7: 880903 1077015 1274418 1513059 1730712 1968472 
Best Partition: 64 512 16 16 64 256 64 32 
Before Swap:
Trace File 1: 0x135152b0
Trace File 2: 0x13514700
Gunzip Command 1: xz -dc ./server_033.champsimtrace.xz
Gunzip Command 2: xz -dc ./server_039.champsimtrace.xz
0x13514700 : 3 curr: 2
0x135152b0 : 5
After Swap:
Trace File 1: 0x13514700
Trace File 2: 0x13515970
Gunzip Command 1: xz -dc ./server_039.champsimtrace.xz
Gunzip Command 2: xz -dc ./server_032.champsimtrace.xz
Successfully read from the swapped trace file.
again: 0
2000017 check cycles 
Trace 0: 1513354 1627809 1993918 2283972 2597964 2982653 
Trace 1: 919345 1169344 1699959 2253728 2930130 3514502 
Trace 2: 0 0 0 0 0 0 
Trace 3: 42753 44956 51746 57937 66212 79180 
Trace 4: 583127 750843 969377 1204023 1573132 1772875 
Trace 5: 1185177 1520841 1960255 2430704 3169798 3566219 
Trace 6: 701210 893855 1107140 1372438 1606058 1851590 
Trace 7: 880903 1077015 1274418 1513059 1730712 1968472 
Best Partition: 64 512 16 16 64 256 64 32 
2000010 check cycles 
Trace 0: 1513354 1627809 1993918 2283972 2597964 2982653 
Trace 1: 919345 1169344 1699959 2253728 2930130 3514502 
Trace 2: 0 0 0 0 0 0 
Trace 3: 89617 94109 108561 121412 138326 165255 
Trace 4: 583127 750843 969377 1204023 1573132 1772875 
Trace 5: 1185177 1520841 1960255 2430704 3169798 3566219 
Trace 6: 701210 893855 1107140 1372438 1606058 1851590 
Trace 7: 880903 1077015 1274418 1513059 1730712 1968472 
Best Partition: 64 512 16 16 64 256 64 32 
2000009 check cycles 
Trace 0: 1513354 1627809 1993918 2283972 2597964 2982653 
Trace 1: 919345 1169344 1699959 2253728 2930130 3514502 
Trace 2: 0 0 0 0 0 0 
Trace 3: 136500 143241 165325 184837 210306 251164 
Trace 4: 583127 750843 969377 1204023 1573132 1772875 
Trace 5: 1185177 1520841 1960255 2430704 3169798 3566219 
Trace 6: 701210 893855 1107140 1372438 1606058 1851590 
Trace 7: 880903 1077015 1274418 1513059 1730712 1968472 
Best Partition: 64 512 16 16 64 256 64 32 
2000013 check cycles 
Trace 0: 1513354 1627809 1993918 2283972 2597964 2982653 
Trace 1: 919345 1169344 1699959 2253728 2930130 3514502 
Trace 2: 0 0 0 0 0 0 
Trace 3: 183780 192779 222510 248751 282912 337872 
Trace 4: 583127 750843 969377 1204023 1573132 1772875 
Trace 5: 1185177 1520841 1960255 2430704 3169798 3566219 
Trace 6: 701210 893855 1107140 1372438 1606058 1851590 
Trace 7: 880903 1077015 1274418 1513059 1730712 1968472 
Best Partition: 64 512 16 16 64 256 64 32 
2000032 check cycles 
Trace 0: 1513354 1627809 1993918 2283972 2597964 2982653 
Trace 1: 919345 1169344 1699959 2253728 2930130 3514502 
Trace 2: 0 0 0 0 0 0 
Trace 3: 235170 246851 283780 317667 362576 433997 
Trace 4: 583127 750843 969377 1204023 1573132 1772875 
Trace 5: 1185177 1520841 1960255 2430704 3169798 3566219 
Trace 6: 701210 893855 1107140 1372438 1606058 1851590 
Trace 7: 880903 1077015 1274418 1513059 1730712 1968472 
Best Partition: 64 512 16 16 64 256 64 32 
2000013 check cycles 
Trace 0: 1513354 1627809 1993918 2283972 2597964 2982653 
Trace 1: 919345 1169344 1699959 2253728 2930130 3514502 
Trace 2: 0 0 0 0 0 0 
Trace 3: 282203 296216 340331 380731 433755 518329 
Trace 4: 583127 750843 969377 1204023 1573132 1772875 
Trace 5: 1185177 1520841 1960255 2430704 3169798 3566219 
Trace 6: 701210 893855 1107140 1372438 1606058 1851590 
Trace 7: 880903 1077015 1274418 1513059 1730712 1968472 
Best Partition: 64 512 16 16 64 256 64 32 
2000004 check cycles 
Trace 0: 1513354 1627809 1993918 2283972 2597964 2982653 
Trace 1: 919345 1169344 1699959 2253728 2930130 3514502 
Trace 2: 0 0 0 0 0 0 
Trace 3: 328956 345368 396695 443643 505178 603023 
Trace 4: 583127 750843 969377 1204023 1573132 1772875 
Trace 5: 1185177 1520841 1960255 2430704 3169798 3566219 
Trace 6: 701210 893855 1107140 1372438 1606058 1851590 
Trace 7: 880903 1077015 1274418 1513059 1730712 1968472 
Best Partition: 64 512 16 16 64 256 64 32 
2000053 check cycles 
Trace 0: 1513354 1627809 1993918 2283972 2597964 2982653 
Trace 1: 919345 1169344 1699959 2253728 2930130 3514502 
Trace 2: 0 0 0 0 0 0 
Trace 3: 375675 394406 452908 506369 576418 687520 
Trace 4: 583127 750843 969377 1204023 1573132 1772875 
Trace 5: 1185177 1520841 1960255 2430704 3169798 3566219 
Trace 6: 701210 893855 1107140 1372438 1606058 1851590 
Trace 7: 880903 1077015 1274418 1513059 1730712 1968472 
Best Partition: 64 512 16 16 64 256 64 32 
2000028 check cycles 
Trace 0: 1513354 1627809 1993918 2283972 2597964 2982653 
Trace 1: 919345 1169344 1699959 2253728 2930130 3514502 
Trace 2: 0 0 0 0 0 0 
Trace 3: 422844 443942 509696 569763 648419 773005 
Trace 4: 583127 750843 969377 1204023 1573132 1772875 
Trace 5: 1185177 1520841 1960255 2430704 3169798 3566219 
Trace 6: 701210 893855 1107140 1372438 1606058 1851590 
Trace 7: 880903 1077015 1274418 1513059 1730712 1968472 
Best Partition: 64 512 16 16 64 256 64 32 
2000012 check cycles 
Trace 0: 1513354 1627809 1993918 2283972 2597964 2982653 
Trace 1: 919345 1169344 1699959 2253728 2930130 3514502 
Trace 2: 0 0 0 0 0 0 
Trace 3: 469991 493455 566481 633145 720323 858182 
Trace 4: 583127 750843 969377 1204023 1573132 1772875 
Trace 5: 1185177 1520841 1960255 2430704 3169798 3566219 
Trace 6: 701210 893855 1107140 1372438 1606058 1851590 
Trace 7: 880903 1077015 1274418 1513059 1730712 1968472 
Best Partition: 64 512 16 16 64 256 64 32 
2000011 check cycles 
Trace 0: 1513354 1627809 1993918 2283972 2597964 2982653 
Trace 1: 919345 1169344 1699959 2253728 2930130 3514502 
Trace 2: 0 0 0 0 0 0 
Trace 3: 516696 542515 622723 695908 791663 942883 
Trace 4: 583127 750843 969377 1204023 1573132 1772875 
Trace 5: 1185177 1520841 1960255 2430704 3169798 3566219 
Trace 6: 701210 893855 1107140 1372438 1606058 1851590 
Trace 7: 880903 1077015 1274418 1513059 1730712 1968472 
Best Partition: 64 512 16 16 64 256 64 32 
Heartbeat CPU 0 instructions: 80000000 cycles: 240657056 heartbeat IPC: 0.213302 cumulative IPC: 0.23518 (Simulation time: 0 hr 10 min 1 sec) 
Before Swap:
Trace File 1: 0x13514700
Trace File 2: 0x13515cd0
Gunzip Command 1: xz -dc ./server_039.champsimtrace.xz
Gunzip Command 2: xz -dc ./server_036.champsimtrace.xz
0x13515cd0 : 0 curr: 0
0x13514700 : 3
After Swap:
Trace File 1: 0x13515cd0
Trace File 2: 0x13514460
Gunzip Command 1: xz -dc ./server_036.champsimtrace.xz
Gunzip Command 2: xz -dc ./server_038.champsimtrace.xz
Successfully read from the swapped trace file.
again: 1
2000003 check cycles 
Trace 0: 1517482 1632008 1998630 2289174 2603968 2989703 
Trace 1: 919345 1169344 1699959 2253728 2930130 3514502 
Trace 2: 0 0 0 0 0 0 
Trace 3: 560187 588235 675220 754568 858307 1021931 
Trace 4: 583127 750843 969377 1204023 1573132 1772875 
Trace 5: 1185177 1520841 1960255 2430704 3169798 3566219 
Trace 6: 701210 893855 1107140 1372438 1606058 1851590 
Trace 7: 880903 1077015 1274418 1513059 1730712 1968472 
Best Partition: 64 512 16 16 64 256 64 32 
2000004 check cycles 
Trace 0: 1572069 1687724 2061073 2358073 2683552 3083675 
Trace 1: 919345 1169344 1699959 2253728 2930130 3514502 
Trace 2: 0 0 0 0 0 0 
Trace 3: 560187 588235 675220 754568 858307 1021931 
Trace 4: 583127 750843 969377 1204023 1573132 1772875 
Trace 5: 1185177 1520841 1960255 2430704 3169798 3566219 
Trace 6: 701210 893855 1107140 1372438 1606058 1851590 
Trace 7: 880903 1077015 1274418 1513059 1730712 1968472 
Best Partition: 64 512 16 16 64 256 64 32 
2000001 check cycles 
Trace 0: 1627523 1744299 2124498 2428063 2764366 3179048 
Trace 1: 919345 1169344 1699959 2253728 2930130 3514502 
Trace 2: 0 0 0 0 0 0 
Trace 3: 560187 588235 675220 754568 858307 1021931 
Trace 4: 583127 750843 969377 1204023 1573132 1772875 
Trace 5: 1185177 1520841 1960255 2430704 3169798 3566219 
Trace 6: 701210 893855 1107140 1372438 1606058 1851590 
Trace 7: 880903 1077015 1274418 1513059 1730712 1968472 
Best Partition: 64 512 16 16 64 256 64 32 
2000029 check cycles 
Trace 0: 1682114 1800020 2186941 2496960 2843949 3273024 
Trace 1: 919345 1169344 1699959 2253728 2930130 3514502 
Trace 2: 0 0 0 0 0 0 
Trace 3: 560187 588235 675220 754568 858307 1021931 
Trace 4: 583127 750843 969377 1204023 1573132 1772875 
Trace 5: 1185177 1520841 1960255 2430704 3169798 3566219 
Trace 6: 701210 893855 1107140 1372438 1606058 1851590 
Trace 7: 880903 1077015 1274418 1513059 1730712 1968472 
Best Partition: 64 512 16 16 64 256 64 32 
2000028 check cycles 
Trace 0: 1737579 1856605 2250377 2566978 2924796 3368431 
Trace 1: 919345 1169344 1699959 2253728 2930130 3514502 
Trace 2: 0 0 0 0 0 0 
Trace 3: 560187 588235 675220 754568 858307 1021931 
Trace 4: 583127 750843 969377 1204023 1573132 1772875 
Trace 5: 1185177 1520841 1960255 2430704 3169798 3566219 
Trace 6: 701210 893855 1107140 1372438 1606058 1851590 
Trace 7: 880903 1077015 1274418 1513059 1730712 1968472 
Best Partition: 64 512 16 16 64 256 64 32 
2000011 check cycles 
Trace 0: 1792171 1912327 2312825 2635865 3004368 3462422 
Trace 1: 919345 1169344 1699959 2253728 2930130 3514502 
Trace 2: 0 0 0 0 0 0 
Trace 3: 560187 588235 675220 754568 858307 1021931 
Trace 4: 583127 750843 969377 1204023 1573132 1772875 
Trace 5: 1185177 1520841 1960255 2430704 3169798 3566219 
Trace 6: 701210 893855 1107140 1372438 1606058 1851590 
Trace 7: 880903 1077015 1274418 1513059 1730712 1968472 
Best Partition: 64 512 16 16 64 256 64 32 
2000007 check cycles 
Trace 0: 1847623 1968900 2376180 2705753 3085150 3557730 
Trace 1: 919345 1169344 1699959 2253728 2930130 3514502 
Trace 2: 0 0 0 0 0 0 
Trace 3: 560187 588235 675220 754568 858307 1021931 
Trace 4: 583127 750843 969377 1204023 1573132 1772875 
Trace 5: 1185177 1520841 1960255 2430704 3169798 3566219 
Trace 6: 701210 893855 1107140 1372438 1606058 1851590 
Trace 7: 880903 1077015 1274418 1513059 1730712 1968472 
Best Partition: 64 512 16 16 64 256 64 32 
2000022 check cycles 
Trace 0: 1902209 2024615 2438618 2774647 3164726 3651702 
Trace 1: 919345 1169344 1699959 2253728 2930130 3514502 
Trace 2: 0 0 0 0 0 0 
Trace 3: 560187 588235 675220 754568 858307 1021931 
Trace 4: 583127 750843 969377 1204023 1573132 1772875 
Trace 5: 1185177 1520841 1960255 2430704 3169798 3566219 
Trace 6: 701210 893855 1107140 1372438 1606058 1851590 
Trace 7: 880903 1077015 1274418 1513059 1730712 1968472 
Best Partition: 64 512 16 16 64 256 64 32 
2000027 check cycles 
Trace 0: 1957672 2081199 2502052 2844660 3245566 3747111 
Trace 1: 919345 1169344 1699959 2253728 2930130 3514502 
Trace 2: 0 0 0 0 0 0 
Trace 3: 560187 588235 675220 754568 858307 1021931 
Trace 4: 583127 750843 969377 1204023 1573132 1772875 
Trace 5: 1185177 1520841 1960255 2430704 3169798 3566219 
Trace 6: 701210 893855 1107140 1372438 1606058 1851590 
Trace 7: 880903 1077015 1274418 1513059 1730712 1968472 
Best Partition: 64 512 16 16 64 256 64 32 
2000003 check cycles 
Trace 0: 2012269 2136926 2564505 2913547 3325142 3841110 
Trace 1: 919345 1169344 1699959 2253728 2930130 3514502 
Trace 2: 0 0 0 0 0 0 
Trace 3: 560187 588235 675220 754568 858307 1021931 
Trace 4: 583127 750843 969377 1204023 1573132 1772875 
Trace 5: 1185177 1520841 1960255 2430704 3169798 3566219 
Trace 6: 701210 893855 1107140 1372438 1606058 1851590 
Trace 7: 880903 1077015 1274418 1513059 1730712 1968472 
Best Partition: 64 512 16 16 64 256 64 32 
2000007 check cycles 
Trace 0: 2067743 2193520 2627950 2983571 3405989 3936490 
Trace 1: 919345 1169344 1699959 2253728 2930130 3514502 
Trace 2: 0 0 0 0 0 0 
Trace 3: 560187 588235 675220 754568 858307 1021931 
Trace 4: 583127 750843 969377 1204023 1573132 1772875 
Trace 5: 1185177 1520841 1960255 2430704 3169798 3566219 
Trace 6: 701210 893855 1107140 1372438 1606058 1851590 
Trace 7: 880903 1077015 1274418 1513059 1730712 1968472 
Best Partition: 64 512 16 16 64 256 64 32 
Before Swap:
Trace File 1: 0x13515cd0
Trace File 2: 0x13514460
Gunzip Command 1: xz -dc ./server_036.champsimtrace.xz
Gunzip Command 2: xz -dc ./server_038.champsimtrace.xz
0x13514460 : 2 curr: 1
0x13515cd0 : 0
After Swap:
Trace File 1: 0x13514460
Trace File 2: 0x135152b0
Gunzip Command 1: xz -dc ./server_038.champsimtrace.xz
Gunzip Command 2: xz -dc ./server_033.champsimtrace.xz
Successfully read from the swapped trace file.
again: 5
2000255 check cycles 
Trace 0: 2122170 2249077 2690229 3052292 3485368 4030252 
Trace 1: 919345 1169344 1699959 2253728 2930130 3514502 
Trace 2: 29 29 29 29 29 29 
Trace 3: 560187 588235 675220 754568 858307 1021931 
Trace 4: 583127 750843 969377 1204023 1573132 1772875 
Trace 5: 1185177 1520841 1960255 2430704 3169798 3566219 
Trace 6: 701210 893855 1107140 1372438 1606058 1851590 
Trace 7: 880903 1077015 1274418 1513059 1730712 1968472 
Best Partition: 64 512 16 16 64 256 64 32 
2000018 check cycles 
Trace 0: 2122170 2249077 2690229 3052292 3485368 4030252 
Trace 1: 919345 1169344 1699959 2253728 2930130 3514502 
Trace 2: 18148 23117 34206 46534 60637 72586 
Trace 3: 560187 588235 675220 754568 858307 1021931 
Trace 4: 583127 750843 969377 1204023 1573132 1772875 
Trace 5: 1185177 1520841 1960255 2430704 3169798 3566219 
Trace 6: 701210 893855 1107140 1372438 1606058 1851590 
Trace 7: 880903 1077015 1274418 1513059 1730712 1968472 
Best Partition: 64 512 16 16 64 256 64 32 
2000024 check cycles 
Trace 0: 2122170 2249077 2690229 3052292 3485368 4030252 
Trace 1: 919345 1169344 1699959 2253728 2930130 3514502 
Trace 2: 43186 54147 77605 102404 131885 157488 
Trace 3: 560187 588235 675220 754568 858307 1021931 
Trace 4: 583127 750843 969377 1204023 1573132 1772875 
Trace 5: 1185177 1520841 1960255 2430704 3169798 3566219 
Trace 6: 701210 893855 1107140 1372438 1606058 1851590 
Trace 7: 880903 1077015 1274418 1513059 1730712 1968472 
Best Partition: 64 512 16 16 64 256 64 32 
2000010 check cycles 
Trace 0: 2122170 2249077 2690229 3052292 3485368 4030252 
Trace 1: 919345 1169344 1699959 2253728 2930130 3514502 
Trace 2: 65927 83188 120420 159203 205455 245760 
Trace 3: 560187 588235 675220 754568 858307 1021931 
Trace 4: 583127 750843 969377 1204023 1573132 1772875 
Trace 5: 1185177 1520841 1960255 2430704 3169798 3566219 
Trace 6: 701210 893855 1107140 1372438 1606058 1851590 
Trace 7: 880903 1077015 1274418 1513059 1730712 1968472 
Best Partition: 64 512 16 16 64 256 64 32 
2000005 check cycles 
Trace 0: 2122170 2249077 2690229 3052292 3485368 4030252 
Trace 1: 919345 1169344 1699959 2253728 2930130 3514502 
Trace 2: 90537 114614 166080 219369 283369 339296 
Trace 3: 560187 588235 675220 754568 858307 1021931 
Trace 4: 583127 750843 969377 1204023 1573132 1772875 
Trace 5: 1185177 1520841 1960255 2430704 3169798 3566219 
Trace 6: 701210 893855 1107140 1372438 1606058 1851590 
Trace 7: 880903 1077015 1274418 1513059 1730712 1968472 
Best Partition: 64 512 16 16 64 256 64 32 
2000031 check cycles 
Trace 0: 2122170 2249077 2690229 3052292 3485368 4030252 
Trace 1: 919345 1169344 1699959 2253728 2930130 3514502 
Trace 2: 113956 144744 210089 277777 359442 430600 
Trace 3: 560187 588235 675220 754568 858307 1021931 
Trace 4: 583127 750843 969377 1204023 1573132 1772875 
Trace 5: 1185177 1520841 1960255 2430704 3169798 3566219 
Trace 6: 701210 893855 1107140 1372438 1606058 1851590 
Trace 7: 880903 1077015 1274418 1513059 1730712 1968472 
Best Partition: 64 512 16 16 64 256 64 32 
2000001 check cycles 
Trace 0: 2122170 2249077 2690229 3052292 3485368 4030252 
Trace 1: 919345 1169344 1699959 2253728 2930130 3514502 
Trace 2: 138079 175296 254576 339109 442247 529956 
Trace 3: 560187 588235 675220 754568 858307 1021931 
Trace 4: 583127 750843 969377 1204023 1573132 1772875 
Trace 5: 1185177 1520841 1960255 2430704 3169798 3566219 
Trace 6: 701210 893855 1107140 1372438 1606058 1851590 
Trace 7: 880903 1077015 1274418 1513059 1730712 1968472 
Best Partition: 64 512 16 16 64 256 64 32 
2000024 check cycles 
Trace 0: 2122170 2249077 2690229 3052292 3485368 4030252 
Trace 1: 919345 1169344 1699959 2253728 2930130 3514502 
Trace 2: 162756 206561 299615 399365 522393 626294 
Trace 3: 560187 588235 675220 754568 858307 1021931 
Trace 4: 583127 750843 969377 1204023 1573132 1772875 
Trace 5: 1185177 1520841 1960255 2430704 3169798 3566219 
Trace 6: 701210 893855 1107140 1372438 1606058 1851590 
Trace 7: 880903 1077015 1274418 1513059 1730712 1968472 
Best Partition: 64 512 16 16 64 256 64 32 
2000015 check cycles 
Trace 0: 2122170 2249077 2690229 3052292 3485368 4030252 
Trace 1: 919345 1169344 1699959 2253728 2930130 3514502 
Trace 2: 186896 237279 344794 460367 601878 721474 
Trace 3: 560187 588235 675220 754568 858307 1021931 
Trace 4: 583127 750843 969377 1204023 1573132 1772875 
Trace 5: 1185177 1520841 1960255 2430704 3169798 3566219 
Trace 6: 701210 893855 1107140 1372438 1606058 1851590 
Trace 7: 880903 1077015 1274418 1513059 1730712 1968472 
Best Partition: 64 512 16 16 64 256 64 32 
2000001 check cycles 
Trace 0: 2122170 2249077 2690229 3052292 3485368 4030252 
Trace 1: 919345 1169344 1699959 2253728 2930130 3514502 
Trace 2: 210931 268078 390124 520289 679619 815044 
Trace 3: 560187 588235 675220 754568 858307 1021931 
Trace 4: 583127 750843 969377 1204023 1573132 1772875 
Trace 5: 1185177 1520841 1960255 2430704 3169798 3566219 
Trace 6: 701210 893855 1107140 1372438 1606058 1851590 
Trace 7: 880903 1077015 1274418 1513059 1730712 1968472 
Best Partition: 64 512 16 16 64 256 64 32 
2000059 check cycles 
Trace 0: 2122170 2249077 2690229 3052292 3485368 4030252 
Trace 1: 919345 1169344 1699959 2253728 2930130 3514502 
Trace 2: 234739 298492 435009 580475 758041 909260 
Trace 3: 560187 588235 675220 754568 858307 1021931 
Trace 4: 583127 750843 969377 1204023 1573132 1772875 
Trace 5: 1185177 1520841 1960255 2430704 3169798 3566219 
Trace 6: 701210 893855 1107140 1372438 1606058 1851590 
Trace 7: 880903 1077015 1274418 1513059 1730712 1968472 
Best Partition: 64 512 16 16 64 256 64 32 
2000044 check cycles 
Trace 0: 2122170 2249077 2690229 3052292 3485368 4030252 
Trace 1: 919345 1169344 1699959 2253728 2930130 3514502 
Trace 2: 263018 333573 484633 644749 840130 1007010 
Trace 3: 560187 588235 675220 754568 858307 1021931 
Trace 4: 583127 750843 969377 1204023 1573132 1772875 
Trace 5: 1185177 1520841 1960255 2430704 3169798 3566219 
Trace 6: 701210 893855 1107140 1372438 1606058 1851590 
Trace 7: 880903 1077015 1274418 1513059 1730712 1968472 
Best Partition: 64 512 16 16 64 256 64 32 
2000014 check cycles 
Trace 0: 2122170 2249077 2690229 3052292 3485368 4030252 
Trace 1: 919345 1169344 1699959 2253728 2930130 3514502 
Trace 2: 287464 364725 530222 705404 918724 1101241 
Trace 3: 560187 588235 675220 754568 858307 1021931 
Trace 4: 583127 750843 969377 1204023 1573132 1772875 
Trace 5: 1185177 1520841 1960255 2430704 3169798 3566219 
Trace 6: 701210 893855 1107140 1372438 1606058 1851590 
Trace 7: 880903 1077015 1274418 1513059 1730712 1968472 
Best Partition: 64 512 16 16 64 256 64 32 
Heartbeat CPU 0 instructions: 90000000 cycles: 288454410 heartbeat IPC: 0.209217 cumulative IPC: 0.230774 (Simulation time: 0 hr 11 min 5 sec) 
Before Swap:
Trace File 1: 0x13514460
Trace File 2: 0x13516030
Gunzip Command 1: xz -dc ./server_038.champsimtrace.xz
Gunzip Command 2: xz -dc ./server_031.champsimtrace.xz
0x13516030 : 7 curr: 5
0x13514460 : 2
After Swap:
Trace File 1: 0x13516030
Trace File 2: 0x13514bf0
Gunzip Command 1: xz -dc ./server_031.champsimtrace.xz
Gunzip Command 2: xz -dc ./server_034.champsimtrace.xz
Successfully read from the swapped trace file.
again: 4
2000009 check cycles 
Trace 0: 2122170 2249077 2690229 3052292 3485368 4030252 
Trace 1: 919345 1169344 1699959 2253728 2930130 3514502 
Trace 2: 307394 390212 567710 754810 982761 1178361 
Trace 3: 560187 588235 675220 754568 858307 1021931 
Trace 4: 583127 750843 969377 1204023 1573132 1772875 
Trace 5: 1185177 1520841 1960255 2430704 3169798 3566219 
Trace 6: 701210 893855 1107140 1372438 1606058 1851590 
Trace 7: 886372 1083497 1281697 1521225 1739381 1978072 
Best Partition: 64 512 16 16 64 256 64 32 
2000009 check cycles 
Trace 0: 2122170 2249077 2690229 3052292 3485368 4030252 
Trace 1: 919345 1169344 1699959 2253728 2930130 3514502 
Trace 2: 307394 390212 567710 754810 982761 1178361 
Trace 3: 560187 588235 675220 754568 858307 1021931 
Trace 4: 583127 750843 969377 1204023 1573132 1772875 
Trace 5: 1185177 1520841 1960255 2430704 3169798 3566219 
Trace 6: 701210 893855 1107140 1372438 1606058 1851590 
Trace 7: 942552 1152154 1363560 1618996 1851812 2106843 
Best Partition: 64 512 16 16 64 256 64 32 
2000026 check cycles 
Trace 0: 2122170 2249077 2690229 3052292 3485368 4030252 
Trace 1: 919345 1169344 1699959 2253728 2930130 3514502 
Trace 2: 307394 390212 567710 754810 982761 1178361 
Trace 3: 560187 588235 675220 754568 858307 1021931 
Trace 4: 583127 750843 969377 1204023 1573132 1772875 
Trace 5: 1185177 1520841 1960255 2430704 3169798 3566219 
Trace 6: 701210 893855 1107140 1372438 1606058 1851590 
Trace 7: 1010733 1236804 1463940 1738503 1989095 2263281 
Best Partition: 64 512 16 16 64 256 32 64 
2000019 check cycles 
Trace 0: 2122170 2249077 2690229 3052292 3485368 4030252 
Trace 1: 919345 1169344 1699959 2253728 2930130 3514502 
Trace 2: 307394 390212 567710 754810 982761 1178361 
Trace 3: 560187 588235 675220 754568 858307 1021931 
Trace 4: 583127 750843 969377 1204023 1573132 1772875 
Trace 5: 1185177 1520841 1960255 2430704 3169798 3566219 
Trace 6: 701210 893855 1107140 1372438 1606058 1851590 
Trace 7: 1105591 1352211 1596436 1890062 2158023 2450374 
Best Partition: 64 512 16 16 64 256 32 64 
2000017 check cycles 
Trace 0: 2122170 2249077 2690229 3052292 3485368 4030252 
Trace 1: 919345 1169344 1699959 2253728 2930130 3514502 
Trace 2: 307394 390212 567710 754810 982761 1178361 
Trace 3: 560187 588235 675220 754568 858307 1021931 
Trace 4: 583127 750843 969377 1204023 1573132 1772875 
Trace 5: 1185177 1520841 1960255 2430704 3169798 3566219 
Trace 6: 701210 893855 1107140 1372438 1606058 1851590 
Trace 7: 1177949 1440519 1701355 2015477 2302018 2614625 
Best Partition: 64 512 16 16 64 256 32 64 
2000015 check cycles 
Trace 0: 2122170 2249077 2690229 3052292 3485368 4030252 
Trace 1: 919345 1169344 1699959 2253728 2930130 3514502 
Trace 2: 307394 390212 567710 754810 982761 1178361 
Trace 3: 560187 588235 675220 754568 858307 1021931 
Trace 4: 583127 750843 969377 1204023 1573132 1772875 
Trace 5: 1185177 1520841 1960255 2430704 3169798 3566219 
Trace 6: 701210 893855 1107140 1372438 1606058 1851590 
Trace 7: 1246076 1524032 1801263 2135359 2440469 2773061 
Best Partition: 64 512 16 16 64 256 32 64 
2000005 check cycles 
Trace 0: 2122170 2249077 2690229 3052292 3485368 4030252 
Trace 1: 919345 1169344 1699959 2253728 2930130 3514502 
Trace 2: 307394 390212 567710 754810 982761 1178361 
Trace 3: 560187 588235 675220 754568 858307 1021931 
Trace 4: 583127 750843 969377 1204023 1573132 1772875 
Trace 5: 1185177 1520841 1960255 2430704 3169798 3566219 
Trace 6: 701210 893855 1107140 1372438 1606058 1851590 
Trace 7: 1328413 1625089 1919317 2272775 2595816 2947963 
Best Partition: 64 512 16 16 64 256 32 64 
2000006 check cycles 
Trace 0: 2122170 2249077 2690229 3052292 3485368 4030252 
Trace 1: 919345 1169344 1699959 2253728 2930130 3514502 
Trace 2: 307394 390212 567710 754810 982761 1178361 
Trace 3: 560187 588235 675220 754568 858307 1021931 
Trace 4: 583127 750843 969377 1204023 1573132 1772875 
Trace 5: 1185177 1520841 1960255 2430704 3169798 3566219 
Trace 6: 701210 893855 1107140 1372438 1606058 1851590 
Trace 7: 1401531 1714731 2025817 2399897 2741365 3113708 
Best Partition: 64 512 16 16 64 256 32 64 
2000003 check cycles 
Trace 0: 2122170 2249077 2690229 3052292 3485368 4030252 
Trace 1: 919345 1169344 1699959 2253728 2930130 3514502 
Trace 2: 307394 390212 567710 754810 982761 1178361 
Trace 3: 560187 588235 675220 754568 858307 1021931 
Trace 4: 583127 750843 969377 1204023 1573132 1772875 
Trace 5: 1185177 1520841 1960255 2430704 3169798 3566219 
Trace 6: 701210 893855 1107140 1372438 1606058 1851590 
Trace 7: 1475942 1805990 2133944 2528645 2888842 3281704 
Best Partition: 128 512 16 16 64 128 32 128 
2000027 check cycles 
Trace 0: 2122170 2249077 2690229 3052292 3485368 4030252 
Trace 1: 919345 1169344 1699959 2253728 2930130 3514502 
Trace 2: 307394 390212 567710 754810 982761 1178361 
Trace 3: 560187 588235 675220 754568 858307 1021931 
Trace 4: 583127 750843 969377 1204023 1573132 1772875 
Trace 5: 1185177 1520841 1960255 2430704 3169798 3566219 
Trace 6: 701210 893855 1107140 1372438 1606058 1851590 
Trace 7: 1551059 1897950 2243049 2658649 3037906 3451733 
Best Partition: 128 512 16 16 64 128 32 128 
2000011 check cycles 
Trace 0: 2122170 2249077 2690229 3052292 3485368 4030252 
Trace 1: 919345 1169344 1699959 2253728 2930130 3514502 
Trace 2: 307394 390212 567710 754810 982761 1178361 
Trace 3: 560187 588235 675220 754568 858307 1021931 
Trace 4: 583127 750843 969377 1204023 1573132 1772875 
Trace 5: 1185177 1520841 1960255 2430704 3169798 3566219 
Trace 6: 701210 893855 1107140 1372438 1606058 1851590 
Trace 7: 1626265 1989913 2352138 2788641 3186912 3621638 
Best Partition: 128 512 16 16 64 128 32 128 
2000024 check cycles 
Trace 0: 2122170 2249077 2690229 3052292 3485368 4030252 
Trace 1: 919345 1169344 1699959 2253728 2930130 3514502 
Trace 2: 307394 390212 567710 754810 982761 1178361 
Trace 3: 560187 588235 675220 754568 858307 1021931 
Trace 4: 583127 750843 969377 1204023 1573132 1772875 
Trace 5: 1185177 1520841 1960255 2430704 3169798 3566219 
Trace 6: 701210 893855 1107140 1372438 1606058 1851590 
Trace 7: 1702119 2082515 2461882 2919266 3336441 3791814 
Best Partition: 128 512 16 16 64 128 32 128 
Before Swap:
Trace File 1: 0x13516030
Trace File 2: 0x135141c0
Gunzip Command 1: xz -dc ./server_031.champsimtrace.xz
Gunzip Command 2: xz -dc ./server_037.champsimtrace.xz
0x135141c0 : 1 curr: 4
0x13516030 : 7
After Swap:
Trace File 1: 0x135141c0
Trace File 2: 0x13514460
Gunzip Command 1: xz -dc ./server_037.champsimtrace.xz
Gunzip Command 2: xz -dc ./server_038.champsimtrace.xz
Successfully read from the swapped trace file.
again: 4
2000026 check cycles 
Trace 0: 2122170 2249077 2690229 3052292 3485368 4030252 
Trace 1: 921752 1172480 1704743 2260206 2938702 3524821 
Trace 2: 307394 390212 567710 754810 982761 1178361 
Trace 3: 560187 588235 675220 754568 858307 1021931 
Trace 4: 583127 750843 969377 1204023 1573132 1772875 
Trace 5: 1185177 1520841 1960255 2430704 3169798 3566219 
Trace 6: 701210 893855 1107140 1372438 1606058 1851590 
Trace 7: 1769440 2164834 2559758 3036010 3470483 3944966 
Best Partition: 128 512 16 16 64 128 32 128 
2000041 check cycles 
Trace 0: 2122170 2249077 2690229 3052292 3485368 4030252 
Trace 1: 959457 1220526 1774834 2353321 3059772 3670207 
Trace 2: 307394 390212 567710 754810 982761 1178361 
Trace 3: 560187 588235 675220 754568 858307 1021931 
Trace 4: 583127 750843 969377 1204023 1573132 1772875 
Trace 5: 1185177 1520841 1960255 2430704 3169798 3566219 
Trace 6: 701210 893855 1107140 1372438 1606058 1851590 
Trace 7: 1769440 2164834 2559758 3036010 3470483 3944966 
Best Partition: 128 512 16 16 64 128 32 128 
2000004 check cycles 
Trace 0: 2122170 2249077 2690229 3052292 3485368 4030252 
Trace 1: 997600 1268934 1844824 2447819 3185313 3820594 
Trace 2: 307394 390212 567710 754810 982761 1178361 
Trace 3: 560187 588235 675220 754568 858307 1021931 
Trace 4: 583127 750843 969377 1204023 1573132 1772875 
Trace 5: 1185177 1520841 1960255 2430704 3169798 3566219 
Trace 6: 701210 893855 1107140 1372438 1606058 1851590 
Trace 7: 1769440 2164834 2559758 3036010 3470483 3944966 
Best Partition: 128 512 16 16 64 128 32 128 
2000026 check cycles 
Trace 0: 2122170 2249077 2690229 3052292 3485368 4030252 
Trace 1: 1035904 1317578 1914984 2541899 3311360 3972301 
Trace 2: 307394 390212 567710 754810 982761 1178361 
Trace 3: 560187 588235 675220 754568 858307 1021931 
Trace 4: 583127 750843 969377 1204023 1573132 1772875 
Trace 5: 1185177 1520841 1960255 2430704 3169798 3566219 
Trace 6: 701210 893855 1107140 1372438 1606058 1851590 
Trace 7: 1769440 2164834 2559758 3036010 3470483 3944966 
Best Partition: 128 512 16 16 64 128 32 128 
2000049 check cycles 
Trace 0: 2122170 2249077 2690229 3052292 3485368 4030252 
Trace 1: 1075102 1367513 1987625 2637938 3436240 4122223 
Trace 2: 307394 390212 567710 754810 982761 1178361 
Trace 3: 560187 588235 675220 754568 858307 1021931 
Trace 4: 583127 750843 969377 1204023 1573132 1772875 
Trace 5: 1185177 1520841 1960255 2430704 3169798 3566219 
Trace 6: 701210 893855 1107140 1372438 1606058 1851590 
Trace 7: 1769440 2164834 2559758 3036010 3470483 3944966 
Best Partition: 128 512 16 16 64 128 32 128 
2000047 check cycles 
Trace 0: 2122170 2249077 2690229 3052292 3485368 4030252 
Trace 1: 1114044 1417117 2059755 2733289 3560107 4271097 
Trace 2: 307394 390212 567710 754810 982761 1178361 
Trace 3: 560187 588235 675220 754568 858307 1021931 
Trace 4: 583127 750843 969377 1204023 1573132 1772875 
Trace 5: 1185177 1520841 1960255 2430704 3169798 3566219 
Trace 6: 701210 893855 1107140 1372438 1606058 1851590 
Trace 7: 1769440 2164834 2559758 3036010 3470483 3944966 
Best Partition: 128 512 16 16 64 128 32 128 
2000013 check cycles 
Trace 0: 2122170 2249077 2690229 3052292 3485368 4030252 
Trace 1: 1153159 1466967 2132293 2829989 3685930 4421889 
Trace 2: 307394 390212 567710 754810 982761 1178361 
Trace 3: 560187 588235 675220 754568 858307 1021931 
Trace 4: 583127 750843 969377 1204023 1573132 1772875 
Trace 5: 1185177 1520841 1960255 2430704 3169798 3566219 
Trace 6: 701210 893855 1107140 1372438 1606058 1851590 
Trace 7: 1769440 2164834 2559758 3036010 3470483 3944966 
Best Partition: 128 512 16 16 64 128 32 128 
2000007 check cycles 
Trace 0: 2122170 2249077 2690229 3052292 3485368 4030252 
Trace 1: 1191444 1515849 2204027 2925965 3810907 4571892 
Trace 2: 307394 390212 567710 754810 982761 1178361 
Trace 3: 560187 588235 675220 754568 858307 1021931 
Trace 4: 583127 750843 969377 1204023 1573132 1772875 
Trace 5: 1185177 1520841 1960255 2430704 3169798 3566219 
Trace 6: 701210 893855 1107140 1372438 1606058 1851590 
Trace 7: 1769440 2164834 2559758 3036010 3470483 3944966 
Best Partition: 128 512 16 16 64 128 32 128 
Heartbeat CPU 0 instructions: 100000001 cycles: 328418139 heartbeat IPC: 0.250227 cumulative IPC: 0.233191 (Simulation time: 0 hr 12 min 10 sec) 
Before Swap:
Trace File 1: 0x135141c0
Trace File 2: 0x13516030
Gunzip Command 1: xz -dc ./server_037.champsimtrace.xz
Gunzip Command 2: xz -dc ./server_031.champsimtrace.xz
0x13516030 : 7 curr: 4
0x135141c0 : 1
After Swap:
Trace File 1: 0x13516030
Trace File 2: 0x13514460
Gunzip Command 1: xz -dc ./server_031.champsimtrace.xz
Gunzip Command 2: xz -dc ./server_038.champsimtrace.xz
Successfully read from the swapped trace file.
again: 5
2000002 check cycles 
Trace 0: 2122170 2249077 2690229 3052292 3485368 4030252 
Trace 1: 1227248 1560317 2266603 3007260 3915274 4696178 
Trace 2: 307394 390212 567710 754810 982761 1178361 
Trace 3: 560187 588235 675220 754568 858307 1021931 
Trace 4: 583127 750843 969377 1204023 1573132 1772875 
Trace 5: 1185177 1520841 1960255 2430704 3169798 3566219 
Trace 6: 701210 893855 1107140 1372438 1606058 1851590 
Trace 7: 1779739 2177416 2574644 3053779 3490893 3968324 
Best Partition: 128 512 16 16 64 128 32 128 
2000011 check cycles 
Trace 0: 2122170 2249077 2690229 3052292 3485368 4030252 
Trace 1: 1227248 1560317 2266603 3007260 3915274 4696178 
Trace 2: 307394 390212 567710 754810 982761 1178361 
Trace 3: 560187 588235 675220 754568 858307 1021931 
Trace 4: 583127 750843 969377 1204023 1573132 1772875 
Trace 5: 1185177 1520841 1960255 2430704 3169798 3566219 
Trace 6: 701210 893855 1107140 1372438 1606058 1851590 
Trace 7: 1853933 2268039 2681985 3181600 3637251 4134902 
Best Partition: 128 512 16 16 64 128 32 128 
2000028 check cycles 
Trace 0: 2122170 2249077 2690229 3052292 3485368 4030252 
Trace 1: 1227248 1560317 2266603 3007260 3915274 4696178 
Trace 2: 307394 390212 567710 754810 982761 1178361 
Trace 3: 560187 588235 675220 754568 858307 1021931 
Trace 4: 583127 750843 969377 1204023 1573132 1772875 
Trace 5: 1185177 1520841 1960255 2430704 3169798 3566219 
Trace 6: 701210 893855 1107140 1372438 1606058 1851590 
Trace 7: 1930086 2361001 2792117 3312592 3787225 4305722 
Best Partition: 128 512 16 16 64 128 32 128 
2000040 check cycles 
Trace 0: 2122170 2249077 2690229 3052292 3485368 4030252 
Trace 1: 1227248 1560317 2266603 3007260 3915274 4696178 
Trace 2: 307394 390212 567710 754810 982761 1178361 
Trace 3: 560187 588235 675220 754568 858307 1021931 
Trace 4: 583127 750843 969377 1204023 1573132 1772875 
Trace 5: 1185177 1520841 1960255 2430704 3169798 3566219 
Trace 6: 701210 893855 1107140 1372438 1606058 1851590 
Trace 7: 2006943 2454794 2903152 3444717 3938530 4478121 
Best Partition: 128 512 16 16 64 128 32 128 
2000041 check cycles 
Trace 0: 2122170 2249077 2690229 3052292 3485368 4030252 
Trace 1: 1227248 1560317 2266603 3007260 3915274 4696178 
[...]
Trace 5: 1185177 1520841 1960255 2430704 3169798 3566219 
Trace 6: 701210 893855 1107140 1372438 1606058 1851590 
Trace 7: 2663327 3259940 3852033 4565932 5218199 5928651 
Best Partition: 64 512 64 32 64 128 32 128 
2000013 check cycles 
Trace 0: 2122170 2249077 2690229 3052292 3485368 4030252 
Trace 1: 1657369 2072442 2951891 3869808 4995435 5975359 
Trace 2: 607700 773490 1129488 1499654 1948600 2338375 
Trace 3: 1014725 1062881 1222257 1381778 1572047 1866385 
Trace 4: 583127 750843 969377 1204023 1573132 1772875 
Trace 5: 1185177 1520841 1960255 2430704 3169798 3566219 
Trace 6: 701210 893855 1107140 1372438 1606058 1851590 
Trace 7: 2663327 3259940 3852033 4565932 5218199 5928651 
Best Partition: 64 512 64 32 64 128 32 128 
2000035 check cycles 
Trace 0: 2122170 2249077 2690229 3052292 3485368 4030252 
Trace 1: 1657369 2072442 2951891 3869808 4995435 5975359 
Trace 2: 607700 773490 1129488 1499654 1948600 2338375 
Trace 3: 1060101 1110250 1276860 1444512 1643485 1950990 
Trace 4: 583127 750843 969377 1204023 1573132 1772875 
Trace 5: 1185177 1520841 1960255 2430704 3169798 3566219 
Trace 6: 701210 893855 1107140 1372438 1606058 1851590 
Trace 7: 2663327 3259940 3852033 4565932 5218199 5928651 
Best Partition: 64 512 64 32 64 128 32 128 
Before Swap:
Trace File 1: 0x13514700
Trace File 2: 0x13515cd0
Gunzip Command 1: xz -dc ./server_039.champsimtrace.xz
Gunzip Command 2: xz -dc ./server_036.champsimtrace.xz
0x13515cd0 : 0 curr: 1
0x13514700 : 3
After Swap:
Trace File 1: 0x13515cd0
Trace File 2: 0x135152b0
Gunzip Command 1: xz -dc ./server_036.champsimtrace.xz
Gunzip Command 2: xz -dc ./server_033.champsimtrace.xz
Successfully read from the swapped trace file.
again: 6
Heartbeat CPU 0 instructions: 120000002 cycles: 414392565 heartbeat IPC: 0.255678 cumulative IPC: 0.233072 (Simulation time: 0 hr 13 min 50 sec) 
2000005 check cycles 
Trace 0: 2133120 2260247 2702741 3066089 3501291 4048998 
Trace 1: 1657369 2072442 2951891 3869808 4995435 5975359 
Trace 2: 607700 773490 1129488 1499654 1948600 2338375 
Trace 3: 1096157 1147884 1320259 1494387 1700252 2018143 
Trace 4: 583127 750843 969377 1204023 1573132 1772875 
Trace 5: 1185177 1520841 1960255 2430704 3169798 3566219 
Trace 6: 701210 893855 1107140 1372438 1606058 1851590 
Trace 7: 2663327 3259940 3852033 4565932 5218199 5928651 
Best Partition: 64 512 64 32 64 128 32 128 
2000048 check cycles 
Trace 0: 2188058 2316298 2765575 3135429 3581368 4143545 
Trace 1: 1657369 2072442 2951891 3869808 4995435 5975359 
Trace 2: 607700 773490 1129488 1499654 1948600 2338375 
Trace 3: 1096157 1147884 1320259 1494387 1700252 2018143 
Trace 4: 583127 750843 969377 1204023 1573132 1772875 
Trace 5: 1185177 1520841 1960255 2430704 3169798 3566219 
Trace 6: 701210 893855 1107140 1372438 1606058 1851590 
Trace 7: 2663327 3259940 3852033 4565932 5218199 5928651 
Best Partition: 64 512 64 32 64 128 32 128 
2000011 check cycles 
Trace 0: 2242556 2371922 2827917 3204216 3660823 4237369 
Trace 1: 1657369 2072442 2951891 3869808 4995435 5975359 
Trace 2: 607700 773490 1129488 1499654 1948600 2338375 
Trace 3: 1096157 1147884 1320259 1494387 1700252 2018143 
Trace 4: 583127 750843 969377 1204023 1573132 1772875 
Trace 5: 1185177 1520841 1960255 2430704 3169798 3566219 
Trace 6: 701210 893855 1107140 1372438 1606058 1851590 
Trace 7: 2663327 3259940 3852033 4565932 5218199 5928651 
Best Partition: 64 512 64 32 64 128 32 128 
2000040 check cycles 
Trace 0: 2297950 2428437 2891214 3274019 3741452 4332548 
Trace 1: 1657369 2072442 2951891 3869808 4995435 5975359 
Trace 2: 607700 773490 1129488 1499654 1948600 2338375 
Trace 3: 1096157 1147884 1320259 1494387 1700252 2018143 
Trace 4: 583127 750843 969377 1204023 1573132 1772875 
Trace 5: 1185177 1520841 1960255 2430704 3169798 3566219 
Trace 6: 701210 893855 1107140 1372438 1606058 1851590 
Trace 7: 2663327 3259940 3852033 4565932 5218199 5928651 
Best Partition: 64 512 64 32 64 128 32 128 
2000008 check cycles 
Trace 0: 2352476 2484088 2953658 3342968 3821063 4426538 
Trace 1: 1657369 2072442 2951891 3869808 4995435 5975359 
Trace 2: 607700 773490 1129488 1499654 1948600 2338375 
Trace 3: 1096157 1147884 1320259 1494387 1700252 2018143 
Trace 4: 583127 750843 969377 1204023 1573132 1772875 
Trace 5: 1185177 1520841 1960255 2430704 3169798 3566219 
Trace 6: 701210 893855 1107140 1372438 1606058 1851590 
Trace 7: 2663327 3259940 3852033 4565932 5218199 5928651 
Best Partition: 64 512 64 32 64 128 32 128 
2000015 check cycles 
Trace 0: 2406958 2539687 3016009 3411808 3900582 4520439 
Trace 1: 1657369 2072442 2951891 3869808 4995435 5975359 
Trace 2: 607700 773490 1129488 1499654 1948600 2338375 
Trace 3: 1096157 1147884 1320259 1494387 1700252 2018143 
Trace 4: 583127 750843 969377 1204023 1573132 1772875 
Trace 5: 1185177 1520841 1960255 2430704 3169798 3566219 
Trace 6: 701210 893855 1107140 1372438 1606058 1851590 
Trace 7: 2663327 3259940 3852033 4565932 5218199 5928651 
Best Partition: 64 512 64 32 64 128 32 128 
2000001 check cycles 
Trace 0: 2462332 2596179 3079296 3481612 3981168 4615519 
Trace 1: 1657369 2072442 2951891 3869808 4995435 5975359 
Trace 2: 607700 773490 1129488 1499654 1948600 2338375 
Trace 3: 1096157 1147884 1320259 1494387 1700252 2018143 
Trace 4: 583127 750843 969377 1204023 1573132 1772875 
Trace 5: 1185177 1520841 1960255 2430704 3169798 3566219 
Trace 6: 701210 893855 1107140 1372438 1606058 1851590 
Trace 7: 2663327 3259940 3852033 4565932 5218199 5928651 
Best Partition: 64 512 64 32 64 128 32 128 
2000008 check cycles 
Trace 0: 2516854 2651831 3141674 3550427 4060666 4709399 
Trace 1: 1657369 2072442 2951891 3869808 4995435 5975359 
Trace 2: 607700 773490 1129488 1499654 1948600 2338375 
Trace 3: 1096157 1147884 1320259 1494387 1700252 2018143 
Trace 4: 583127 750843 969377 1204023 1573132 1772875 
Trace 5: 1185177 1520841 1960255 2430704 3169798 3566219 
Trace 6: 701210 893855 1107140 1372438 1606058 1851590 
Trace 7: 2663327 3259940 3852033 4565932 5218199 5928651 
Best Partition: 64 512 64 32 64 128 32 128 
2000074 check cycles 
Trace 0: 2571802 2707899 3204514 3619773 4140837 4804120 
Trace 1: 1657369 2072442 2951891 3869808 4995435 5975359 
Trace 2: 607700 773490 1129488 1499654 1948600 2338375 
Trace 3: 1096157 1147884 1320259 1494387 1700252 2018143 
Trace 4: 583127 750843 969377 1204023 1573132 1772875 
Trace 5: 1185177 1520841 1960255 2430704 3169798 3566219 
Trace 6: 701210 893855 1107140 1372438 1606058 1851590 
Trace 7: 2663327 3259940 3852033 4565932 5218199 5928651 
Best Partition: 64 512 64 32 64 128 32 128 
2000029 check cycles 
Trace 0: 2626738 2763953 3267350 3689107 4220800 4898415 
Trace 1: 1657369 2072442 2951891 3869808 4995435 5975359 
Trace 2: 607700 773490 1129488 1499654 1948600 2338375 
Trace 3: 1096157 1147884 1320259 1494387 1700252 2018143 
Trace 4: 583127 750843 969377 1204023 1573132 1772875 
Trace 5: 1185177 1520841 1960255 2430704 3169798 3566219 
Trace 6: 701210 893855 1107140 1372438 1606058 1851590 
Trace 7: 2663327 3259940 3852033 4565932 5218199 5928651 
Best Partition: 64 512 64 32 64 128 32 128 
2000007 check cycles 
Trace 0: 2681256 2819596 3329747 3757972 4300364 4992394 
Trace 1: 1657369 2072442 2951891 3869808 4995435 5975359 
Trace 2: 607700 773490 1129488 1499654 1948600 2338375 
Trace 3: 1096157 1147884 1320259 1494387 1700252 2018143 
Trace 4: 583127 750843 969377 1204023 1573132 1772875 
Trace 5: 1185177 1520841 1960255 2430704 3169798 3566219 
Trace 6: 701210 893855 1107140 1372438 1606058 1851590 
Trace 7: 2663327 3259940 3852033 4565932 5218199 5928651 
Best Partition: 64 512 64 32 64 128 32 128 
Finished CPU 0 instructions: 100000000 cycles: 429804691 cumulative IPC: 0.232664 (Simulation time: 0 hr 14 min 15 sec) 

ChampSim completed all CPUs

Region of Interest Statistics
MPKI for 0x135141c0 trace file: 119.477
MPKI for 0x13514460 trace file: 106.109
MPKI for 0x13514700 trace file: 76.7352
MPKI for 0x13514bf0 trace file: 85.627
MPKI for 0x135152b0 trace file: 78.4418
MPKI for 0x13515970 trace file: 111.845
MPKI for 0x13515cd0 trace file: 101.002
MPKI for 0x13516030 trace file: 95.9456

CPU 0 cumulative IPC: 0.232664 instructions: 100000000 cycles: 429804691
check utility
0 0 0 0 0 0 
0 0 0 0 0 0 
1 0 0 0 0 0 
0 0 0 0 0 0 
1 0 0 0 0 0 
1 0 0 0 0 0 
1 0 0 0 0 0 
1 0 0 0 0 0 
ITLB TOTAL     ACCESS:   17848873  HIT:   16747686  MISS:    1101187  HIT %:    93.8305  MISS %:     6.1695   MPKI: 11.0119
ITLB LOAD TRANSLATION ACCESS:   17848873  HIT:   16747686  MISS:    1101187  HIT %:    93.8305  MISS %:     6.1695   MPKI: 11.0119
ITLB PREFETCH  REQUESTED:          0  ISSUED:          0  USEFUL:          0  USELESS:          0
ITLB USEFUL LOAD PREFETCHES:          0 PREFETCH ISSUED TO LOWER LEVEL:          0  ACCURACY: -nan
ITLB TIMELY PREFETCHES:          0 LATE PREFETCHES: 0 DROPPED PREFETCHES: 0
ITLB PREFETCHES SAME FILL-ORIGIN LEVEL: 0 DIFFERENT FILL-ORIGIN LEVEL: 0
ITLB AVERAGE MISS LATENCY: 9.28947 cycles
ITLB RQ	ACCESS:   21180575	FORWARD:          0	MERGED:    3078232	TO_CACHE:   18102343

DTLB TOTAL     ACCESS:   22220692  HIT:   21383417  MISS:     837275  HIT %:     96.232  MISS %:      3.768   MPKI: 8.37275
DTLB LOAD TRANSLATION ACCESS:   22220692  HIT:   21383417  MISS:     837275  HIT %:     96.232  MISS %:      3.768   MPKI: 8.37275
DTLB PREFETCH  REQUESTED:          0  ISSUED:          0  USEFUL:          0  USELESS:          0
DTLB USEFUL LOAD PREFETCHES:          0 PREFETCH ISSUED TO LOWER LEVEL:          0  ACCURACY: -nan
DTLB TIMELY PREFETCHES:          0 LATE PREFETCHES: 0 DROPPED PREFETCHES: 0
DTLB PREFETCHES SAME FILL-ORIGIN LEVEL: 0 DIFFERENT FILL-ORIGIN LEVEL: 0
DTLB AVERAGE MISS LATENCY: 12.1506 cycles
DTLB RQ	ACCESS:   30016850	FORWARD:          0	MERGED:    7754903	TO_CACHE:   22261947

STLB TOTAL     ACCESS:    1938462  HIT:    1918855  MISS:      19607  HIT %:    98.9885  MISS %:    1.01147   MPKI: 0.19607
STLB LOAD TRANSLATION ACCESS:    1938462  HIT:    1918855  MISS:      19607  HIT %:    98.9885  MISS %:    1.01147   MPKI: 0.19607
STLB PREFETCH  REQUESTED:          0  ISSUED:          0  USEFUL:          0  USELESS:          0
STLB USEFUL LOAD PREFETCHES:          0 PREFETCH ISSUED TO LOWER LEVEL:          0  ACCURACY: -nan
STLB TIMELY PREFETCHES:          0 LATE PREFETCHES: 0 DROPPED PREFETCHES: 0
STLB PREFETCHES SAME FILL-ORIGIN LEVEL: 0 DIFFERENT FILL-ORIGIN LEVEL: 0
STLB AVERAGE MISS LATENCY: 150.055 cycles
STLB RQ	ACCESS:    1938462	FORWARD:          0	MERGED:          0	TO_CACHE:    1938462

STLB Hit, L1D data hit: 0
STLB Hit, L2C data hit: 0
STLB Hit, LLC data hit: 0
STLB Hit, LLC data miss: 0
STLB STLB hints to L2: 0
L1D TOTAL     ACCESS:   29681216  HIT:   28662975  MISS:    1018241  HIT %:    96.5694  MISS %:    3.43059   MPKI: 10.1824
L1D LOAD      ACCESS:   16868593  HIT:   16072123  MISS:     796470  HIT %:    95.2784  MISS %:    4.72161   MPKI: 7.9647
L1D RFO       ACCESS:   12812623  HIT:   12590852  MISS:     221771  HIT %:    98.2691  MISS %:    1.73088   MPKI: 2.21771
L1D PREFETCH  REQUESTED:          0  ISSUED:          0  USEFUL:          0  USELESS:          0
L1D USEFUL LOAD PREFETCHES:          0 PREFETCH ISSUED TO LOWER LEVEL:          0  ACCURACY: -nan
L1D TIMELY PREFETCHES:          0 LATE PREFETCHES: 0 DROPPED PREFETCHES: 0
L1D PREFETCHES SAME FILL-ORIGIN LEVEL: 0 DIFFERENT FILL-ORIGIN LEVEL: 0
L1D AVERAGE MISS LATENCY: 46.1488 cycles
L1D RQ	ACCESS:   23360381	FORWARD:          0	MERGED:    6361480	TO_CACHE:   16904906
L1D WQ	ACCESS:   13176409	FORWARD:      93995	MERGED:      64465	TO_CACHE:   13111944

L1D UNIQUE REGIONS ACCESSED: 0
L1D REGIONS CONFLICTS: 0
L1D Cross Page Prefetch Requests: 0
L1D Same Page Prefetch Requests: 0
L1D ROI Sum of L1D PQ occupancy: 0
L1D PREFETCHES PUSHED FROM L2C: 0
L1I TOTAL     ACCESS:   20282684  HIT:   13361955  MISS:    6920729  HIT %:    65.8786  MISS %:    34.1214   MPKI: 69.2073
L1I LOAD      ACCESS:   20282684  HIT:   13361955  MISS:    6920729  HIT %:    65.8786  MISS %:    34.1214   MPKI: 69.2073
L1I PREFETCH  REQUESTED:          0  ISSUED:          0  USEFUL:          0  USELESS:          0
L1I USEFUL LOAD PREFETCHES:          0 PREFETCH ISSUED TO LOWER LEVEL:          0  ACCURACY: -nan
L1I TIMELY PREFETCHES:          0 LATE PREFETCHES: 0 DROPPED PREFETCHES: 0
L1I PREFETCHES SAME FILL-ORIGIN LEVEL: 0 DIFFERENT FILL-ORIGIN LEVEL: 0
L1I AVERAGE MISS LATENCY: 15.2214 cycles
L1I RQ	ACCESS:   28219230	FORWARD:          0	MERGED:    7038655	TO_CACHE:   21180575

BTB TOTAL     ACCESS:   14059485  HIT:    4365655  MISS:    9693830  HIT %:    31.0513  MISS %:    68.9487   MPKI: 96.9383
BTB BRANCH_DIRECT_JUMP	ACCESS:    1061304  HIT:     335024  MISS:     726280
BTB BRANCH_INDIRECT	ACCESS:    6169546  HIT:    1924862  MISS:    4244684
BTB BRANCH_CONDITIONAL	ACCESS:    2237935  HIT:    1135159  MISS:    1102776
BTB BRANCH_DIRECT_CALL	ACCESS:    1894196  HIT:     447702  MISS:    1446494
BTB BRANCH_INDIRECT_CALL	ACCESS:     401163  HIT:      91895  MISS:     309268
BTB BRANCH_RETURN	ACCESS:    2295341  HIT:     431013  MISS:    1864328
BTB BRANCH_OTHER ACCESS:          0  HIT:          0  MISS:          0

L2C TOTAL     ACCESS:    8452694  HIT:    8016731  MISS:     435963  HIT %:    94.8423  MISS %:    5.15768   MPKI: 4.35963
L2C LOAD      ACCESS:    7717198  HIT:    7374577  MISS:     342621  HIT %:    95.5603  MISS %:    4.43971   MPKI: 3.42621
L2C DATA LOAD MPKI: 1.99852
L2C INSTRUCTION LOAD MPKI: 1.42769
L2C RFO       ACCESS:     221771  HIT:     146267  MISS:      75504  HIT %:    65.9541  MISS %:    34.0459   MPKI: 0.75504
L2C WRITEBACK ACCESS:     488595  HIT:     484190  MISS:       4405  HIT %:    99.0984  MISS %:   0.901565   MPKI: 0.04405
L2C LOAD TRANSLATION ACCESS:      25130  HIT:      11697  MISS:      13433  HIT %:     46.546  MISS %:     53.454   MPKI: 0.13433
L2C PREFETCH  REQUESTED:          0  ISSUED:          0  USEFUL:          0  USELESS:          0
L2C USEFUL LOAD PREFETCHES:          0 PREFETCH ISSUED TO LOWER LEVEL:          0  ACCURACY: -nan
L2C TIMELY PREFETCHES:          0 LATE PREFETCHES: 0 DROPPED PREFETCHES: 0
L2C PREFETCHES SAME FILL-ORIGIN LEVEL: 0 DIFFERENT FILL-ORIGIN LEVEL: 0
L2C AVERAGE MISS LATENCY: 94.2661 cycles
L2C RQ	ACCESS:    7964101	FORWARD:          0	MERGED:          0	TO_CACHE:    7964100
L2C WQ	ACCESS:     488595	FORWARD:          1	MERGED:          0	TO_CACHE:     488595

L2C Instructions Evicting Data 61518
L2C Translations Evicting Data 9390
L2C Data Evicting Data 205621
L2C Instructions Evicting Instructions 77639
L2C Translations Evicting Instructions 3167
L2C Data Evicting Instructions 58800
L2C Instructions Evicting Translations 2805
L2C Translations Evicting Translations 780
L2C Data Evicting Translations 9661
L2C Dense regions hint from L2: 0
PSCL5 TOTAL     ACCESS:      19607  HIT:      19607  MISS:          0  HIT %:        100  MISS %:          0   MPKI: 0
PSCL5 LOAD TRANSLATION ACCESS:      19607  HIT:      19607  MISS:          0  HIT %:        100  MISS %:          0   MPKI: 0
PSCL5 PREFETCH  REQUESTED:          0  ISSUED:          0  USEFUL:          0  USELESS:          0
PSCL5 USEFUL LOAD PREFETCHES:          0 PREFETCH ISSUED TO LOWER LEVEL:          0  ACCURACY: -nan
PSCL5 TIMELY PREFETCHES:          0 LATE PREFETCHES: 0 DROPPED PREFETCHES: 0
PSCL5 PREFETCHES SAME FILL-ORIGIN LEVEL: 0 DIFFERENT FILL-ORIGIN LEVEL: 0

PSCL4 TOTAL     ACCESS:      18466  HIT:      18323  MISS:        143  HIT %:    99.2256  MISS %:   0.774396   MPKI: 0.00143
PSCL4 LOAD TRANSLATION ACCESS:      18466  HIT:      18323  MISS:        143  HIT %:    99.2256  MISS %:   0.774396   MPKI: 0.00143
PSCL4 PREFETCH  REQUESTED:          0  ISSUED:          0  USEFUL:          0  USELESS:          0
PSCL4 USEFUL LOAD PREFETCHES:          0 PREFETCH ISSUED TO LOWER LEVEL:          0  ACCURACY: -nan
PSCL4 TIMELY PREFETCHES:          0 LATE PREFETCHES: 0 DROPPED PREFETCHES: 0
PSCL4 PREFETCHES SAME FILL-ORIGIN LEVEL: 0 DIFFERENT FILL-ORIGIN LEVEL: 0

PSCL3 TOTAL     ACCESS:      19184  HIT:      18914  MISS:        270  HIT %:    98.5926  MISS %:    1.40742   MPKI: 0.0027
PSCL3 LOAD TRANSLATION ACCESS:      19184  HIT:      18914  MISS:        270  HIT %:    98.5926  MISS %:    1.40742   MPKI: 0.0027
PSCL3 PREFETCH  REQUESTED:          0  ISSUED:          0  USEFUL:          0  USELESS:          0
PSCL3 USEFUL LOAD PREFETCHES:          0 PREFETCH ISSUED TO LOWER LEVEL:          0  ACCURACY: -nan
PSCL3 TIMELY PREFETCHES:          0 LATE PREFETCHES: 0 DROPPED PREFETCHES: 0
PSCL3 PREFETCHES SAME FILL-ORIGIN LEVEL: 0 DIFFERENT FILL-ORIGIN LEVEL: 0

PSCL2 TOTAL     ACCESS:      19607  HIT:      14124  MISS:       5483  HIT %:    72.0355  MISS %:    27.9645   MPKI: 0.05483
PSCL2 LOAD TRANSLATION ACCESS:      19607  HIT:      14124  MISS:       5483  HIT %:    72.0355  MISS %:    27.9645   MPKI: 0.05483
PSCL2 PREFETCH  REQUESTED:          0  ISSUED:          0  USEFUL:          0  USELESS:          0
PSCL2 USEFUL LOAD PREFETCHES:          0 PREFETCH ISSUED TO LOWER LEVEL:          0  ACCURACY: -nan
PSCL2 TIMELY PREFETCHES:          0 LATE PREFETCHES: 0 DROPPED PREFETCHES: 0
PSCL2 PREFETCHES SAME FILL-ORIGIN LEVEL: 0 DIFFERENT FILL-ORIGIN LEVEL: 0

LLC TOTAL     ACCESS:     589106  HIT:     432115  MISS:     156991  HIT %:     73.351  MISS %:     26.649   MPKI: 1.56991
LLC LOAD      ACCESS:     342621  HIT:     233358  MISS:     109263  HIT %:    68.1097  MISS %:    31.8903   MPKI: 1.09263
LLC RFO       ACCESS:      75504  HIT:      34557  MISS:      40947  HIT %:    45.7684  MISS %:    54.2316   MPKI: 0.40947
LLC WRITEBACK ACCESS:     157548  HIT:     157455  MISS:         93  HIT %:     99.941  MISS %:  0.0590296   MPKI: 0.00093
LLC LOAD TRANSLATION ACCESS:      13433  HIT:       6745  MISS:       6688  HIT %:    50.2122  MISS %:    49.7878   MPKI: 0.06688
LLC PREFETCH  REQUESTED:          0  ISSUED:          0  USEFUL:          0  USELESS:          0
LLC USEFUL LOAD PREFETCHES:          0 PREFETCH ISSUED TO LOWER LEVEL:          0  ACCURACY: -nan
LLC TIMELY PREFETCHES:          0 LATE PREFETCHES: 0 DROPPED PREFETCHES: 0
LLC PREFETCHES SAME FILL-ORIGIN LEVEL: 0 DIFFERENT FILL-ORIGIN LEVEL: 0
LLC AVERAGE MISS LATENCY: 177.936 cycles
LLC RQ	ACCESS:     431558	FORWARD:          0	MERGED:          0	TO_CACHE:     431558
LLC WQ	ACCESS:     157548	FORWARD:          0	MERGED:          0	TO_CACHE:     157548

LLC Dense regions hint to LLC: 0

RAW hits: 657310
Loads Generated: 24017692
Loads sent to L1D: 23360381
Stores Generated: 13176407
Stores sent to L1D: 13176409
Major fault: 0 Minor fault: 9949
Allocated PAGES: 9949

DRAM Statistics
 CHANNEL 0
 RQ ROW_BUFFER_HIT:      42795  ROW_BUFFER_MISS:     114102
 DBUS_CONGESTED:         33
 WQ ROW_BUFFER_HIT:      14912  ROW_BUFFER_MISS:      48979  FULL:          0

 AVG_CONGESTED_CYCLE: 3
 All warmup complete: 2
Channel 0 Bank busy for read cycles: 0
Channel 0 Bank busy for write cycles: 0
Channel 0
Rank 0
0banks busy for read cycles: 408968495
0banks busy for write cycles: 27268
1banks busy for read cycles: 11633377
1banks busy for write cycles: 4510841
2banks busy for read cycles: 1442040
2banks busy for write cycles: 1192048
3banks busy for read cycles: 257931
3banks busy for write cycles: 428150
4banks busy for read cycles: 101486
4banks busy for write cycles: 198885
5banks busy for read cycles: 64016
5banks busy for write cycles: 99303
6banks busy for read cycles: 73401
6banks busy for write cycles: 60203
7banks busy for read cycles: 116395
7banks busy for write cycles: 68979
8banks busy for read cycles: 259299
8banks busy for write cycles: 302575

CPU 0 Branch Prediction Accuracy: 96.4894% MPKI: 6.02509 Average ROB Occupancy at Mispredict: 6.51035
Branch types
NOT_BRANCH: 82837479 82.8375%
BRANCH_DIRECT_JUMP: 1061304 1.0613%
BRANCH_INDIRECT: 6169546 6.16955%
BRANCH_CONDITIONAL: 5340857 5.34086%
BRANCH_DIRECT_CALL: 1894196 1.8942%
BRANCH_INDIRECT_CALL: 401163 0.401163%
BRANCH_RETURN: 2295341 2.29534%
BRANCH_OTHER: 0 0%

DRAM PAGES: 1048576
Allocated PAGES: 9949
