
*** ChampSim Multicore Out-of-Order Simulator ***

Warmup Instructions: 25000000
Simulation Instructions: 100000000
Number of CPUs: 1
LLC sets: 2048
LLC ways: 16
Off-chip DRAM Size: 4096 MB Channels: 1 Width: 64-bit Data Rate: 6400 MT/s
CPU 0 runs ./447.dealII-3B.champsimtrace.xz
AAAAA
.xz
./447.dealII-3B.champsimtrace.xz 0
ABDUBDIBDIBDIBD
0x2b72cf80
CPU 0 runs ./456.hmmer-191B.champsimtrace.xz
AAAAA
.xz
./456.hmmer-191B.champsimtrace.xz 1
0x2b72d220
CPU 0 runs ./458.sjeng-1088B.champsimtrace.xz
AAAAA
.xz
./458.sjeng-1088B.champsimtrace.xz 2
0x2b72d4c0
CPU 0 runs ./483.xalancbmk-736B.champsimtrace.xz
AAAAA
.xz
./483.xalancbmk-736B.champsimtrace.xz 3
0x2b72d760
CPU 0 Bimodal branch predictor
BTB has LRU replacement policy
ITLB has LRU replacement policy
DTLB has LRU replacement policy
STLB has LRU replacement policy
L1I has LRU replacement policy
L1D has LRU replacement policy
L2C has LRU replacement policy
LLC has LRU replacement policy
Heartbeat CPU 0 instructions: 10000000 cycles: 3798354 heartbeat IPC: 2.63272 cumulative IPC: 2.63272 (Simulation time: 0 hr 0 min 31 sec) 
Heartbeat CPU 0 instructions: 20000003 cycles: 7607979 heartbeat IPC: 2.62493 cumulative IPC: 2.62882 (Simulation time: 0 hr 1 min 11 sec) 

Warmup complete CPU 0 instructions: 25000001 cycles: 9512331 (Simulation time: 0 hr 1 min 31 sec) 

Before Swap:
Trace File 1: 0x2b72d610
Trace File 2: 0x2b72d220
Gunzip Command 1: xz -dc ./447.dealII-3B.champsimtrace.xz
Gunzip Command 2: xz -dc ./456.hmmer-191B.champsimtrace.xz
0x2b72d220 : 1 curr: 0
0x2b72d610 : 0
After Swap:
Trace File 1: 0x2b72d220
Trace File 2: 0x2b72d610
Gunzip Command 1: xz -dc ./456.hmmer-191B.champsimtrace.xz
Gunzip Command 2: xz -dc ./447.dealII-3B.champsimtrace.xz
Successfully read from the swapped trace file.
again: 0
swap_traces called30000000
random_inst = 14673926
Heartbeat CPU 0 instructions: 30000003 cycles: 19796937 heartbeat IPC: 0.820415 cumulative IPC: 0.486164 (Simulation time: 0 hr 1 min 51 sec) 
Heartbeat CPU 0 instructions: 40000000 cycles: 31305531 heartbeat IPC: 0.868916 cumulative IPC: 0.688288 (Simulation time: 0 hr 2 min 31 sec) 
Before Swap:
Trace File 1: 0x2b72d220
Trace File 2: 0x2b72d610
Gunzip Command 1: xz -dc ./456.hmmer-191B.champsimtrace.xz
Gunzip Command 2: xz -dc ./447.dealII-3B.champsimtrace.xz
0x2b72d610 : 0 curr: 0
0x2b72d220 : 1
After Swap:
Trace File 1: 0x2b72d610
Trace File 2: 0x2b72d220
Gunzip Command 1: xz -dc ./447.dealII-3B.champsimtrace.xz
Gunzip Command 2: xz -dc ./456.hmmer-191B.champsimtrace.xz
Successfully read from the swapped trace file.
again: 2
swap_traces called44673926
random_inst = 5742436
Heartbeat CPU 0 instructions: 50000000 cycles: 46724551 heartbeat IPC: 0.64855 cumulative IPC: 0.671822 (Simulation time: 0 hr 3 min 8 sec) 
Before Swap:
Trace File 1: 0x2b72d610
Trace File 2: 0x2b72d760
Gunzip Command 1: xz -dc ./447.dealII-3B.champsimtrace.xz
Gunzip Command 2: xz -dc ./483.xalancbmk-736B.champsimtrace.xz
0x2b72d760 : 3 curr: 2
0x2b72d610 : 0
After Swap:
Trace File 1: 0x2b72d760
Trace File 2: 0x2b72d610
Gunzip Command 1: xz -dc ./483.xalancbmk-736B.champsimtrace.xz
Gunzip Command 2: xz -dc ./447.dealII-3B.champsimtrace.xz
Successfully read from the swapped trace file.
again: 2
swap_traces called50416362
random_inst = 6561090
Before Swap:
Trace File 1: 0x2b72d760
Trace File 2: 0x2b72d610
Gunzip Command 1: xz -dc ./483.xalancbmk-736B.champsimtrace.xz
Gunzip Command 2: xz -dc ./447.dealII-3B.champsimtrace.xz
0x2b72d610 : 0 curr: 2
0x2b72d760 : 3
After Swap:
Trace File 1: 0x2b72d610
Trace File 2: 0x2b72d760
Gunzip Command 1: xz -dc ./447.dealII-3B.champsimtrace.xz
Gunzip Command 2: xz -dc ./483.xalancbmk-736B.champsimtrace.xz
Successfully read from the swapped trace file.
again: 1
swap_traces called56977452
random_inst = 9314226
Heartbeat CPU 0 instructions: 60000000 cycles: 63767684 heartbeat IPC: 0.586747 cumulative IPC: 0.645098 (Simulation time: 0 hr 3 min 40 sec) 
Before Swap:
Trace File 1: 0x2b72d610
Trace File 2: 0x2b72d4c0
Gunzip Command 1: xz -dc ./447.dealII-3B.champsimtrace.xz
Gunzip Command 2: xz -dc ./458.sjeng-1088B.champsimtrace.xz
0x2b72d4c0 : 2 curr: 1
0x2b72d610 : 0
After Swap:
Trace File 1: 0x2b72d4c0
Trace File 2: 0x2b72d610
Gunzip Command 1: xz -dc ./458.sjeng-1088B.champsimtrace.xz
Gunzip Command 2: xz -dc ./447.dealII-3B.champsimtrace.xz
Successfully read from the swapped trace file.
again: 0
swap_traces called66291678
random_inst = 14870847
Heartbeat CPU 0 instructions: 70000000 cycles: 90101818 heartbeat IPC: 0.379735 cumulative IPC: 0.558385 (Simulation time: 0 hr 4 min 19 sec) 
Heartbeat CPU 0 instructions: 80000000 cycles: 117604707 heartbeat IPC: 0.363598 cumulative IPC: 0.508824 (Simulation time: 0 hr 4 min 51 sec) 
Before Swap:
Trace File 1: 0x2b72d4c0
Trace File 2: 0x2b72d220
Gunzip Command 1: xz -dc ./458.sjeng-1088B.champsimtrace.xz
Gunzip Command 2: xz -dc ./456.hmmer-191B.champsimtrace.xz
0x2b72d220 : 1 curr: 0
0x2b72d4c0 : 2
After Swap:
Trace File 1: 0x2b72d220
Trace File 2: 0x2b72d4c0
Gunzip Command 1: xz -dc ./456.hmmer-191B.champsimtrace.xz
Gunzip Command 2: xz -dc ./458.sjeng-1088B.champsimtrace.xz
Successfully read from the swapped trace file.
again: 0
swap_traces called81162525
random_inst = 5416318
Before Swap:
Trace File 1: 0x2b72d220
Trace File 2: 0x2b72d4c0
Gunzip Command 1: xz -dc ./456.hmmer-191B.champsimtrace.xz
Gunzip Command 2: xz -dc ./458.sjeng-1088B.champsimtrace.xz
0x2b72d4c0 : 2 curr: 0
0x2b72d220 : 1
After Swap:
Trace File 1: 0x2b72d4c0
Trace File 2: 0x2b72d220
Gunzip Command 1: xz -dc ./458.sjeng-1088B.champsimtrace.xz
Gunzip Command 2: xz -dc ./456.hmmer-191B.champsimtrace.xz
Successfully read from the swapped trace file.
again: 0
swap_traces called86578843
random_inst = 13300330
Heartbeat CPU 0 instructions: 90000000 cycles: 136591207 heartbeat IPC: 0.52669 cumulative IPC: 0.511493 (Simulation time: 0 hr 5 min 26 sec) 
Before Swap:
Trace File 1: 0x2b72d4c0
Trace File 2: 0x2b72d220
Gunzip Command 1: xz -dc ./458.sjeng-1088B.champsimtrace.xz
Gunzip Command 2: xz -dc ./456.hmmer-191B.champsimtrace.xz
0x2b72d220 : 1 curr: 0
0x2b72d4c0 : 2
After Swap:
Trace File 1: 0x2b72d220
Trace File 2: 0x2b72d4c0
Gunzip Command 1: xz -dc ./456.hmmer-191B.champsimtrace.xz
Gunzip Command 2: xz -dc ./458.sjeng-1088B.champsimtrace.xz
Successfully read from the swapped trace file.
again: 1
swap_traces called99879173
random_inst = 9114561
Heartbeat CPU 0 instructions: 100000002 cycles: 163868009 heartbeat IPC: 0.366612 cumulative IPC: 0.485891 (Simulation time: 0 hr 5 min 59 sec) 
Before Swap:
Trace File 1: 0x2b72d220
Trace File 2: 0x2b72d610
Gunzip Command 1: xz -dc ./456.hmmer-191B.champsimtrace.xz
Gunzip Command 2: xz -dc ./447.dealII-3B.champsimtrace.xz
0x2b72d610 : 0 curr: 1
0x2b72d220 : 1
After Swap:
Trace File 1: 0x2b72d610
Trace File 2: 0x2b72d220
Gunzip Command 1: xz -dc ./447.dealII-3B.champsimtrace.xz
Gunzip Command 2: xz -dc ./456.hmmer-191B.champsimtrace.xz
Successfully read from the swapped trace file.
again: 2
swap_traces called108993734
random_inst = 14924218
Heartbeat CPU 0 instructions: 110000000 cycles: 177618671 heartbeat IPC: 0.727238 cumulative IPC: 0.505632 (Simulation time: 0 hr 6 min 56 sec) 
Heartbeat CPU 0 instructions: 120000002 cycles: 203326057 heartbeat IPC: 0.388993 cumulative IPC: 0.490161 (Simulation time: 0 hr 7 min 54 sec) 
Before Swap:
Trace File 1: 0x2b72d610
Trace File 2: 0x2b72d760
Gunzip Command 1: xz -dc ./447.dealII-3B.champsimtrace.xz
Gunzip Command 2: xz -dc ./483.xalancbmk-736B.champsimtrace.xz
0x2b72d760 : 3 curr: 2
0x2b72d610 : 0
After Swap:
Trace File 1: 0x2b72d760
Trace File 2: 0x2b72d610
Gunzip Command 1: xz -dc ./483.xalancbmk-736B.champsimtrace.xz
Gunzip Command 2: xz -dc ./447.dealII-3B.champsimtrace.xz
Successfully read from the swapped trace file.
again: 2
swap_traces called123917952
random_inst = 12880633
Finished CPU 0 instructions: 100000000 cycles: 205656122 cumulative IPC: 0.486249 (Simulation time: 0 hr 8 min 15 sec) 

ChampSim completed all CPUs

Region of Interest Statistics

CPU 0 cumulative IPC: 0.486249 instructions: 100000000 cycles: 205656122
ITLB TOTAL     ACCESS:   15298163  HIT:   15293314  MISS:       4849  HIT %:    99.9683  MISS %:  0.0316966   MPKI: 0.04849
ITLB LOAD TRANSLATION ACCESS:   15298163  HIT:   15293314  MISS:       4849  HIT %:    99.9683  MISS %:  0.0316966   MPKI: 0.04849
ITLB PREFETCH  REQUESTED:          0  ISSUED:          0  USEFUL:          0  USELESS:          0
ITLB USEFUL LOAD PREFETCHES:          0 PREFETCH ISSUED TO LOWER LEVEL:          0  ACCURACY: -nan
ITLB TIMELY PREFETCHES:          0 LATE PREFETCHES: 0 DROPPED PREFETCHES: 0
ITLB PREFETCHES SAME FILL-ORIGIN LEVEL: 0 DIFFERENT FILL-ORIGIN LEVEL: 0
ITLB AVERAGE MISS LATENCY: 16.8334 cycles
ITLB RQ	ACCESS:   19432876	FORWARD:          0	MERGED:    4133391	TO_CACHE:   15299485

DTLB TOTAL     ACCESS:   28941912  HIT:   28810663  MISS:     131249  HIT %:    99.5465  MISS %:   0.453491   MPKI: 1.31249
DTLB LOAD TRANSLATION ACCESS:   28941912  HIT:   28810663  MISS:     131249  HIT %:    99.5465  MISS %:   0.453491   MPKI: 1.31249
DTLB PREFETCH  REQUESTED:          0  ISSUED:          0  USEFUL:          0  USELESS:          0
DTLB USEFUL LOAD PREFETCHES:          0 PREFETCH ISSUED TO LOWER LEVEL:          0  ACCURACY: -nan
DTLB TIMELY PREFETCHES:          0 LATE PREFETCHES: 0 DROPPED PREFETCHES: 0
DTLB PREFETCHES SAME FILL-ORIGIN LEVEL: 0 DIFFERENT FILL-ORIGIN LEVEL: 0
DTLB AVERAGE MISS LATENCY: 37.6524 cycles
DTLB RQ	ACCESS:   34737510	FORWARD:          0	MERGED:    5789537	TO_CACHE:   28947973

STLB TOTAL     ACCESS:     136098  HIT:     123268  MISS:      12830  HIT %:     90.573  MISS %:    9.42703   MPKI: 0.1283
STLB LOAD TRANSLATION ACCESS:     136098  HIT:     123268  MISS:      12830  HIT %:     90.573  MISS %:    9.42703   MPKI: 0.1283
STLB PREFETCH  REQUESTED:          0  ISSUED:          0  USEFUL:          0  USELESS:          0
STLB USEFUL LOAD PREFETCHES:          0 PREFETCH ISSUED TO LOWER LEVEL:          0  ACCURACY: -nan
STLB TIMELY PREFETCHES:          0 LATE PREFETCHES: 0 DROPPED PREFETCHES: 0
STLB PREFETCHES SAME FILL-ORIGIN LEVEL: 0 DIFFERENT FILL-ORIGIN LEVEL: 0
STLB AVERAGE MISS LATENCY: 295.018 cycles
STLB RQ	ACCESS:     136098	FORWARD:          0	MERGED:          0	TO_CACHE:     136098

STLB Hit, L1D data hit: 0
STLB Hit, L2C data hit: 0
STLB Hit, LLC data hit: 0
STLB Hit, LLC data miss: 0
STLB STLB hints to L2: 0
L1D TOTAL     ACCESS:   34205254  HIT:   33728853  MISS:     476401  HIT %:    98.6072  MISS %:    1.39277   MPKI: 4.76401
L1D LOAD      ACCESS:   25552413  HIT:   25182484  MISS:     369929  HIT %:    98.5523  MISS %:    1.44773   MPKI: 3.69929
L1D RFO       ACCESS:    8652841  HIT:    8546369  MISS:     106472  HIT %:    98.7695  MISS %:    1.23049   MPKI: 1.06472
L1D PREFETCH  REQUESTED:          0  ISSUED:          0  USEFUL:          0  USELESS:          0
L1D USEFUL LOAD PREFETCHES:          0 PREFETCH ISSUED TO LOWER LEVEL:          0  ACCURACY: -nan
L1D TIMELY PREFETCHES:          0 LATE PREFETCHES: 0 DROPPED PREFETCHES: 0
L1D PREFETCHES SAME FILL-ORIGIN LEVEL: 0 DIFFERENT FILL-ORIGIN LEVEL: 0
L1D AVERAGE MISS LATENCY: 68.3113 cycles
L1D RQ	ACCESS:   35857457	FORWARD:          0	MERGED:    9223007	TO_CACHE:   25727498
L1D WQ	ACCESS:   11203104	FORWARD:     906952	MERGED:    2193092	TO_CACHE:    9010012

L1D UNIQUE REGIONS ACCESSED: 0
L1D REGIONS CONFLICTS: 0
L1D Cross Page Prefetch Requests: 0
L1D Same Page Prefetch Requests: 0
L1D ROI Sum of L1D PQ occupancy: 0
L1D PREFETCHES PUSHED FROM L2C: 0
L1I TOTAL     ACCESS:   19431078  HIT:   19423075  MISS:       8003  HIT %:    99.9588  MISS %:  0.0411866   MPKI: 0.08003
L1I LOAD      ACCESS:   19431078  HIT:   19423075  MISS:       8003  HIT %:    99.9588  MISS %:  0.0411866   MPKI: 0.08003
L1I PREFETCH  REQUESTED:          0  ISSUED:          0  USEFUL:          0  USELESS:          0
L1I USEFUL LOAD PREFETCHES:          0 PREFETCH ISSUED TO LOWER LEVEL:          0  ACCURACY: -nan
L1I TIMELY PREFETCHES:          0 LATE PREFETCHES: 0 DROPPED PREFETCHES: 0
L1I PREFETCHES SAME FILL-ORIGIN LEVEL: 0 DIFFERENT FILL-ORIGIN LEVEL: 0
L1I AVERAGE MISS LATENCY: 74.2277 cycles
L1I RQ	ACCESS:   27752314	FORWARD:          0	MERGED:    8319438	TO_CACHE:   19432876

BTB TOTAL     ACCESS:   10966998  HIT:   10615528  MISS:     351470  HIT %:    96.7952  MISS %:     3.2048   MPKI: 3.5147
BTB BRANCH_DIRECT_JUMP	ACCESS:     509261  HIT:     501820  MISS:       7441
BTB BRANCH_INDIRECT	ACCESS:     184684  HIT:      88602  MISS:      96082
BTB BRANCH_CONDITIONAL	ACCESS:    7841040  HIT:    7827233  MISS:      13807
BTB BRANCH_DIRECT_CALL	ACCESS:    1048639  HIT:    1042733  MISS:       5906
BTB BRANCH_INDIRECT_CALL	ACCESS:     167644  HIT:     110206  MISS:      57438
BTB BRANCH_RETURN	ACCESS:    1215730  HIT:    1044934  MISS:     170796
BTB BRANCH_OTHER ACCESS:          0  HIT:          0  MISS:          0

L2C TOTAL     ACCESS:     623831  HIT:     487681  MISS:     136150  HIT %:    78.1752  MISS %:    21.8248   MPKI: 1.3615
L2C LOAD      ACCESS:     377932  HIT:     346122  MISS:      31810  HIT %:    91.5831  MISS %:    8.41686   MPKI: 0.3181
L2C DATA LOAD MPKI: 0.29371
L2C INSTRUCTION LOAD MPKI: 0.02439
L2C RFO       ACCESS:     106472  HIT:       8398  MISS:      98074  HIT %:    7.88752  MISS %:    92.1125   MPKI: 0.98074
L2C WRITEBACK ACCESS:     124159  HIT:     124025  MISS:        134  HIT %:    99.8921  MISS %:   0.107926   MPKI: 0.00134
L2C LOAD TRANSLATION ACCESS:      15268  HIT:       9136  MISS:       6132  HIT %:    59.8376  MISS %:    40.1624   MPKI: 0.06132
L2C PREFETCH  REQUESTED:          0  ISSUED:          0  USEFUL:          0  USELESS:          0
L2C USEFUL LOAD PREFETCHES:          0 PREFETCH ISSUED TO LOWER LEVEL:          0  ACCURACY: -nan
L2C TIMELY PREFETCHES:          0 LATE PREFETCHES: 0 DROPPED PREFETCHES: 0
L2C PREFETCHES SAME FILL-ORIGIN LEVEL: 0 DIFFERENT FILL-ORIGIN LEVEL: 0
L2C AVERAGE MISS LATENCY: 196.241 cycles
L2C RQ	ACCESS:     499672	FORWARD:          0	MERGED:          0	TO_CACHE:     499672
L2C WQ	ACCESS:     124159	FORWARD:          0	MERGED:          0	TO_CACHE:     124159

L2C Instructions Evicting Data 2323
L2C Translations Evicting Data 5814
L2C Data Evicting Data 115517
L2C Instructions Evicting Instructions 58
L2C Translations Evicting Instructions 150
L2C Data Evicting Instructions 2240
L2C Instructions Evicting Translations 44
L2C Translations Evicting Translations 140
L2C Data Evicting Translations 5297
L2C Dense regions hint from L2: 0
PSCL5 TOTAL     ACCESS:      12830  HIT:      12830  MISS:          0  HIT %:        100  MISS %:          0   MPKI: 0
PSCL5 LOAD TRANSLATION ACCESS:      12830  HIT:      12830  MISS:          0  HIT %:        100  MISS %:          0   MPKI: 0
PSCL5 PREFETCH  REQUESTED:          0  ISSUED:          0  USEFUL:          0  USELESS:          0
PSCL5 USEFUL LOAD PREFETCHES:          0 PREFETCH ISSUED TO LOWER LEVEL:          0  ACCURACY: -nan
PSCL5 TIMELY PREFETCHES:          0 LATE PREFETCHES: 0 DROPPED PREFETCHES: 0
PSCL5 PREFETCHES SAME FILL-ORIGIN LEVEL: 0 DIFFERENT FILL-ORIGIN LEVEL: 0

PSCL4 TOTAL     ACCESS:      12830  HIT:      12829  MISS:          1  HIT %:    99.9922  MISS %: 0.00779423   MPKI: 1e-05
PSCL4 LOAD TRANSLATION ACCESS:      12830  HIT:      12829  MISS:          1  HIT %:    99.9922  MISS %: 0.00779423   MPKI: 1e-05
PSCL4 PREFETCH  REQUESTED:          0  ISSUED:          0  USEFUL:          0  USELESS:          0
PSCL4 USEFUL LOAD PREFETCHES:          0 PREFETCH ISSUED TO LOWER LEVEL:          0  ACCURACY: -nan
PSCL4 TIMELY PREFETCHES:          0 LATE PREFETCHES: 0 DROPPED PREFETCHES: 0
PSCL4 PREFETCHES SAME FILL-ORIGIN LEVEL: 0 DIFFERENT FILL-ORIGIN LEVEL: 0

PSCL3 TOTAL     ACCESS:      12830  HIT:      12820  MISS:         10  HIT %:    99.9221  MISS %:  0.0779423   MPKI: 0.0001
PSCL3 LOAD TRANSLATION ACCESS:      12830  HIT:      12820  MISS:         10  HIT %:    99.9221  MISS %:  0.0779423   MPKI: 0.0001
PSCL3 PREFETCH  REQUESTED:          0  ISSUED:          0  USEFUL:          0  USELESS:          0
PSCL3 USEFUL LOAD PREFETCHES:          0 PREFETCH ISSUED TO LOWER LEVEL:          0  ACCURACY: -nan
PSCL3 TIMELY PREFETCHES:          0 LATE PREFETCHES: 0 DROPPED PREFETCHES: 0
PSCL3 PREFETCHES SAME FILL-ORIGIN LEVEL: 0 DIFFERENT FILL-ORIGIN LEVEL: 0

PSCL2 TOTAL     ACCESS:      12830  HIT:      10133  MISS:       2697  HIT %:     78.979  MISS %:     21.021   MPKI: 0.02697
PSCL2 LOAD TRANSLATION ACCESS:      12830  HIT:      10133  MISS:       2697  HIT %:     78.979  MISS %:     21.021   MPKI: 0.02697
PSCL2 PREFETCH  REQUESTED:          0  ISSUED:          0  USEFUL:          0  USELESS:          0
PSCL2 USEFUL LOAD PREFETCHES:          0 PREFETCH ISSUED TO LOWER LEVEL:          0  ACCURACY: -nan
PSCL2 TIMELY PREFETCHES:          0 LATE PREFETCHES: 0 DROPPED PREFETCHES: 0
PSCL2 PREFETCHES SAME FILL-ORIGIN LEVEL: 0 DIFFERENT FILL-ORIGIN LEVEL: 0

LLC TOTAL     ACCESS:     242273  HIT:     111542  MISS:     130731  HIT %:    46.0398  MISS %:    53.9602   MPKI: 1.30731
LLC LOAD      ACCESS:      31810  HIT:       3386  MISS:      28424  HIT %:    10.6445  MISS %:    89.3555   MPKI: 0.28424
LLC RFO       ACCESS:      98074  HIT:        426  MISS:      97648  HIT %:   0.434366  MISS %:    99.5656   MPKI: 0.97648
LLC WRITEBACK ACCESS:     106257  HIT:     106237  MISS:         20  HIT %:    99.9812  MISS %:  0.0188223   MPKI: 0.0002
LLC LOAD TRANSLATION ACCESS:       6132  HIT:       1493  MISS:       4639  HIT %:    24.3477  MISS %:    75.6523   MPKI: 0.04639
LLC PREFETCH  REQUESTED:          0  ISSUED:          0  USEFUL:          0  USELESS:          0
LLC USEFUL LOAD PREFETCHES:          0 PREFETCH ISSUED TO LOWER LEVEL:          0  ACCURACY: -nan
LLC TIMELY PREFETCHES:          0 LATE PREFETCHES: 0 DROPPED PREFETCHES: 0
LLC PREFETCHES SAME FILL-ORIGIN LEVEL: 0 DIFFERENT FILL-ORIGIN LEVEL: 0
LLC AVERAGE MISS LATENCY: 172.184 cycles
LLC RQ	ACCESS:     136016	FORWARD:          0	MERGED:          0	TO_CACHE:     136016
LLC WQ	ACCESS:     106257	FORWARD:          0	MERGED:          0	TO_CACHE:     106257

LLC Dense regions hint to LLC: 0

RAW hits: 1003315
Loads Generated: 36860768
Loads sent to L1D: 35857457
Stores Generated: 11203104
Stores sent to L1D: 11203104
Major fault: 0 Minor fault: 10232
Allocated PAGES: 10232

DRAM Statistics
 CHANNEL 0
 RQ ROW_BUFFER_HIT:      60519  ROW_BUFFER_MISS:      70192
 DBUS_CONGESTED:         37
 WQ ROW_BUFFER_HIT:      16401  ROW_BUFFER_MISS:      68361  FULL:          0

 AVG_CONGESTED_CYCLE: 5
 All warmup complete: 2
Channel 0 Bank busy for read cycles: 0
Channel 0 Bank busy for write cycles: 0
Channel 0
Rank 0
0banks busy for read cycles: 185198943
0banks busy for write cycles: 53245
1banks busy for read cycles: 9892056
1banks busy for write cycles: 7766163
2banks busy for read cycles: 1053467
2banks busy for write cycles: 450534
3banks busy for read cycles: 236049
3banks busy for write cycles: 118363
4banks busy for read cycles: 128561
4banks busy for write cycles: 69303
5banks busy for read cycles: 49970
5banks busy for write cycles: 71536
6banks busy for read cycles: 15509
6banks busy for write cycles: 60732
7banks busy for read cycles: 1618
7banks busy for write cycles: 87230
8banks busy for read cycles: 166
8banks busy for write cycles: 402678

CPU 0 Branch Prediction Accuracy: 90.8622% MPKI: 11.673 Average ROB Occupancy at Mispredict: 26.7368
Branch types
NOT_BRANCH: 87225297 87.2253%
BRANCH_DIRECT_JUMP: 509261 0.509261%
BRANCH_INDIRECT: 184684 0.184684%
BRANCH_CONDITIONAL: 9648409 9.64841%
BRANCH_DIRECT_CALL: 1048639 1.04864%
BRANCH_INDIRECT_CALL: 167644 0.167644%
BRANCH_RETURN: 1215730 1.21573%
BRANCH_OTHER: 0 0%

DRAM PAGES: 1048576
Allocated PAGES: 10232
