
*** ChampSim Multicore Out-of-Order Simulator ***

Warmup Instructions: 25000000
Simulation Instructions: 1000000000
Number of CPUs: 1
LLC sets: 2048
LLC ways: 16
Off-chip DRAM Size: 4096 MB Channels: 1 Width: 64-bit Data Rate: 6400 MT/s
CPU 0 runs ../utility-based-partitioning/server_038.champsimtrace.xz
AAAAA
.xz
../utility-based-partitioning/server_038.champsimtrace.xz 0
ABDUBDIBDIBDIBD
0x2ea78fc0
CPU 0 runs ../utility-based-partitioning/server_039.champsimtrace.xz
AAAAA
.xz
../utility-based-partitioning/server_039.champsimtrace.xz 1
0x2ea79260
CPU 0 runs ../utility-based-partitioning/server_034.champsimtrace.xz
AAAAA
.xz
../utility-based-partitioning/server_034.champsimtrace.xz 2
0x2ea79500
CPU 0 runs ../utility-based-partitioning/server_033.champsimtrace.xz
AAAAA
.xz
../utility-based-partitioning/server_033.champsimtrace.xz 3
0x2ea797a0
CPU 0 Bimodal branch predictor
BTB has LRU replacement policy
ITLB has LRU replacement policy
DTLB has LRU replacement policy
STLB has LRU replacement policy
L1I has LRU replacement policy
L1D has LRU replacement policy
L2C has LRU replacement policy
LLC has LRU replacement policy
Heartbeat CPU 0 instructions: 10000000 cycles: 2776088 heartbeat IPC: 3.60219 cumulative IPC: 3.60219 (Simulation time: 0 hr 0 min 37 sec) 
Heartbeat CPU 0 instructions: 20000002 cycles: 5551274 heartbeat IPC: 3.60336 cumulative IPC: 3.60278 (Simulation time: 0 hr 1 min 16 sec) 

Warmup complete CPU 0 instructions: 25000001 cycles: 6938438 (Simulation time: 0 hr 1 min 40 sec) 

Before Swap:
Trace File 1: 0x2ea79650
Trace File 2: 0x2ea79260
Gunzip Command 1: xz -dc ../utility-based-partitioning/server_038.champsimtrace.xz
Gunzip Command 2: xz -dc ../utility-based-partitioning/server_039.champsimtrace.xz
0x2ea79260 : 1 curr: 0
0x2ea79650 : 0
After Swap:
Trace File 1: 0x2ea79260
Trace File 2: 0x2ea79650
Gunzip Command 1: xz -dc ../utility-based-partitioning/server_039.champsimtrace.xz
Gunzip Command 2: xz -dc ../utility-based-partitioning/server_038.champsimtrace.xz
Successfully read from the swapped trace file.
again: 6
swap_traces called30000000
random_inst = 10832306
Heartbeat CPU 0 instructions: 30000000 cycles: 29891609 heartbeat IPC: 0.410841 cumulative IPC: 0.217835 (Simulation time: 0 hr 2 min 18 sec) 
Heartbeat CPU 0 instructions: 40000000 cycles: 75163821 heartbeat IPC: 0.220886 cumulative IPC: 0.21986 (Simulation time: 0 hr 3 min 11 sec) 
