
*** ChampSim Multicore Out-of-Order Simulator ***

Warmup Instructions: 25000000
Simulation Instructions: 100000000
Number of CPUs: 1
LLC sets: 2048
LLC ways: 16
Off-chip DRAM Size: 4096 MB Channels: 1 Width: 64-bit Data Rate: 6400 MT/s
CPU 0 runs ../utility-based-partitioning/server_037.champsimtrace.xz
AAAAA
.xz
../utility-based-partitioning/server_037.champsimtrace.xz 0
ABDUBDIBDIBDIBD
0xe52ff30
CPU 0 runs ../utility-based-partitioning/server_038.champsimtrace.xz
AAAAA
.xz
../utility-based-partitioning/server_038.champsimtrace.xz 1
0xe5301d0
CPU 0 runs ../utility-based-partitioning/server_039.champsimtrace.xz
AAAAA
.xz
../utility-based-partitioning/server_039.champsimtrace.xz 2
0xe530470
CPU 0 runs ../utility-based-partitioning/server_034.champsimtrace.xz
AAAAA
.xz
../utility-based-partitioning/server_034.champsimtrace.xz 3
0xe530710
CPU 0 runs ../utility-based-partitioning/server_033.champsimtrace.xz
AAAAA
.xz
../utility-based-partitioning/server_033.champsimtrace.xz 4
0xe530c00
CPU 0 runs ../utility-based-partitioning/server_032.champsimtrace.xz
AAAAA
.xz
../utility-based-partitioning/server_032.champsimtrace.xz 5
0xe5312c0
CPU 0 runs ../utility-based-partitioning/server_031.champsimtrace.xz
AAAAA
.xz
../utility-based-partitioning/server_031.champsimtrace.xz 6
0xe531980
CPU 0 runs ../utility-based-partitioning/server_030.champsimtrace.xz
AAAAA
.xz
../utility-based-partitioning/server_030.champsimtrace.xz 7
0xe532040
CPU 0 Bimodal branch predictor
BTB has LRU replacement policy
ITLB has LRU replacement policy
DTLB has LRU replacement policy
STLB has LRU replacement policy
L1I has LRU replacement policy
L1D has LRU replacement policy
L2C has LRU replacement policy
LLC has LRU replacement policy
Heartbeat CPU 0 instructions: 10000002 cycles: 2774188 heartbeat IPC: 3.60466 cumulative IPC: 3.60466 (Simulation time: 0 hr 0 min 27 sec) 
Heartbeat CPU 0 instructions: 20000001 cycles: 5546709 heartbeat IPC: 3.60683 cumulative IPC: 3.60574 (Simulation time: 0 hr 1 min 1 sec) 

Warmup complete CPU 0 instructions: 25000003 cycles: 6938902 (Simulation time: 0 hr 1 min 14 sec) 

Before Swap:
Trace File 1: 0xe531ce0
Trace File 2: 0xe5301d0
Gunzip Command 1: xz -dc ../utility-based-partitioning/server_037.champsimtrace.xz
Gunzip Command 2: xz -dc ../utility-based-partitioning/server_038.champsimtrace.xz
0xe5301d0 : 1 curr: 0
0xe531ce0 : 0
After Swap:
Trace File 1: 0xe5301d0
Trace File 2: 0xe531ce0
Gunzip Command 1: xz -dc ../utility-based-partitioning/server_038.champsimtrace.xz
Gunzip Command 2: xz -dc ../utility-based-partitioning/server_037.champsimtrace.xz
Successfully read from the swapped trace file.
Heartbeat CPU 0 instructions: 30000001 cycles: 25716791 heartbeat IPC: 0.495784 cumulative IPC: 0.266271 (Simulation time: 0 hr 2 min 8 sec) 
Before Swap:
Trace File 1: 0xe5301d0
Trace File 2: 0xe530470
Gunzip Command 1: xz -dc ../utility-based-partitioning/server_038.champsimtrace.xz
Gunzip Command 2: xz -dc ../utility-based-partitioning/server_039.champsimtrace.xz
0xe530470 : 2 curr: 1
0xe5301d0 : 1
After Swap:
Trace File 1: 0xe530470
Trace File 2: 0xe5301d0
Gunzip Command 1: xz -dc ../utility-based-partitioning/server_039.champsimtrace.xz
Gunzip Command 2: xz -dc ../utility-based-partitioning/server_038.champsimtrace.xz
Successfully read from the swapped trace file.
Before Swap:
Trace File 1: 0xe530470
Trace File 2: 0xe530710
Gunzip Command 1: xz -dc ../utility-based-partitioning/server_039.champsimtrace.xz
Gunzip Command 2: xz -dc ../utility-based-partitioning/server_034.champsimtrace.xz
0xe530710 : 3 curr: 2
0xe530470 : 2
After Swap:
Trace File 1: 0xe530710
Trace File 2: 0xe530470
Gunzip Command 1: xz -dc ../utility-based-partitioning/server_034.champsimtrace.xz
Gunzip Command 2: xz -dc ../utility-based-partitioning/server_039.champsimtrace.xz
Successfully read from the swapped trace file.
Heartbeat CPU 0 instructions: 40000000 cycles: 69869399 heartbeat IPC: 0.226487 cumulative IPC: 0.238358 (Simulation time: 0 hr 3 min 49 sec) 
Before Swap:
Trace File 1: 0xe530710
Trace File 2: 0xe530c00
Gunzip Command 1: xz -dc ../utility-based-partitioning/server_034.champsimtrace.xz
Gunzip Command 2: xz -dc ../utility-based-partitioning/server_033.champsimtrace.xz
0xe530c00 : 4 curr: 3
0xe530710 : 3
After Swap:
Trace File 1: 0xe530c00
Trace File 2: 0xe530710
Gunzip Command 1: xz -dc ../utility-based-partitioning/server_033.champsimtrace.xz
Gunzip Command 2: xz -dc ../utility-based-partitioning/server_034.champsimtrace.xz
Successfully read from the swapped trace file.
Before Swap:
Trace File 1: 0xe530c00
Trace File 2: 0xe5312c0
Gunzip Command 1: xz -dc ../utility-based-partitioning/server_033.champsimtrace.xz
Gunzip Command 2: xz -dc ../utility-based-partitioning/server_032.champsimtrace.xz
0xe5312c0 : 5 curr: 4
0xe530c00 : 4
After Swap:
Trace File 1: 0xe5312c0
Trace File 2: 0xe530c00
Gunzip Command 1: xz -dc ../utility-based-partitioning/server_032.champsimtrace.xz
Gunzip Command 2: xz -dc ../utility-based-partitioning/server_033.champsimtrace.xz
Successfully read from the swapped trace file.
Heartbeat CPU 0 instructions: 50000001 cycles: 117657614 heartbeat IPC: 0.209257 cumulative IPC: 0.225797 (Simulation time: 0 hr 5 min 37 sec) 
Before Swap:
Trace File 1: 0xe5312c0
Trace File 2: 0xe531980
Gunzip Command 1: xz -dc ../utility-based-partitioning/server_032.champsimtrace.xz
Gunzip Command 2: xz -dc ../utility-based-partitioning/server_031.champsimtrace.xz
0xe531980 : 6 curr: 5
0xe5312c0 : 5
After Swap:
Trace File 1: 0xe531980
Trace File 2: 0xe5312c0
Gunzip Command 1: xz -dc ../utility-based-partitioning/server_031.champsimtrace.xz
Gunzip Command 2: xz -dc ../utility-based-partitioning/server_032.champsimtrace.xz
Successfully read from the swapped trace file.
Before Swap:
Trace File 1: 0xe531980
Trace File 2: 0xe532040
Gunzip Command 1: xz -dc ../utility-based-partitioning/server_031.champsimtrace.xz
Gunzip Command 2: xz -dc ../utility-based-partitioning/server_030.champsimtrace.xz
0xe532040 : 7 curr: 6
0xe531980 : 6
After Swap:
Trace File 1: 0xe532040
Trace File 2: 0xe531980
Gunzip Command 1: xz -dc ../utility-based-partitioning/server_030.champsimtrace.xz
Gunzip Command 2: xz -dc ../utility-based-partitioning/server_031.champsimtrace.xz
Successfully read from the swapped trace file.
Heartbeat CPU 0 instructions: 60000001 cycles: 166033893 heartbeat IPC: 0.206713 cumulative IPC: 0.219994 (Simulation time: 0 hr 7 min 51 sec) 
Before Swap:
Trace File 1: 0xe532040
Trace File 2: 0xe531ce0
Gunzip Command 1: xz -dc ../utility-based-partitioning/server_030.champsimtrace.xz
Gunzip Command 2: xz -dc ../utility-based-partitioning/server_037.champsimtrace.xz
0xe531ce0 : 0 curr: 0
0xe532040 : 7
After Swap:
Trace File 1: 0xe531ce0
Trace File 2: 0xe532040
Gunzip Command 1: xz -dc ../utility-based-partitioning/server_037.champsimtrace.xz
Gunzip Command 2: xz -dc ../utility-based-partitioning/server_030.champsimtrace.xz
Successfully read from the swapped trace file.
Before Swap:
Trace File 1: 0xe531ce0
Trace File 2: 0xe5301d0
Gunzip Command 1: xz -dc ../utility-based-partitioning/server_037.champsimtrace.xz
Gunzip Command 2: xz -dc ../utility-based-partitioning/server_038.champsimtrace.xz
0xe5301d0 : 1 curr: 1
0xe531ce0 : 0
After Swap:
Trace File 1: 0xe5301d0
Trace File 2: 0xe531ce0
Gunzip Command 1: xz -dc ../utility-based-partitioning/server_038.champsimtrace.xz
Gunzip Command 2: xz -dc ../utility-based-partitioning/server_037.champsimtrace.xz
Successfully read from the swapped trace file.
Heartbeat CPU 0 instructions: 70000003 cycles: 209848141 heartbeat IPC: 0.228236 cumulative IPC: 0.221774 (Simulation time: 0 hr 9 min 23 sec) 
Before Swap:
Trace File 1: 0xe5301d0
Trace File 2: 0xe530470
Gunzip Command 1: xz -dc ../utility-based-partitioning/server_038.champsimtrace.xz
Gunzip Command 2: xz -dc ../utility-based-partitioning/server_039.champsimtrace.xz
0xe530470 : 2 curr: 2
0xe5301d0 : 1
After Swap:
Trace File 1: 0xe530470
Trace File 2: 0xe5301d0
Gunzip Command 1: xz -dc ../utility-based-partitioning/server_039.champsimtrace.xz
Gunzip Command 2: xz -dc ../utility-based-partitioning/server_038.champsimtrace.xz
Successfully read from the swapped trace file.
Before Swap:
Trace File 1: 0xe530470
Trace File 2: 0xe530710
Gunzip Command 1: xz -dc ../utility-based-partitioning/server_039.champsimtrace.xz
Gunzip Command 2: xz -dc ../utility-based-partitioning/server_034.champsimtrace.xz
0xe530710 : 3 curr: 3
0xe530470 : 2
After Swap:
Trace File 1: 0xe530710
Trace File 2: 0xe530470
Gunzip Command 1: xz -dc ../utility-based-partitioning/server_034.champsimtrace.xz
Gunzip Command 2: xz -dc ../utility-based-partitioning/server_039.champsimtrace.xz
Successfully read from the swapped trace file.
Heartbeat CPU 0 instructions: 80000001 cycles: 255093860 heartbeat IPC: 0.221015 cumulative IPC: 0.221636 (Simulation time: 0 hr 10 min 57 sec) 
Before Swap:
Trace File 1: 0xe530710
Trace File 2: 0xe530c00
Gunzip Command 1: xz -dc ../utility-based-partitioning/server_034.champsimtrace.xz
Gunzip Command 2: xz -dc ../utility-based-partitioning/server_033.champsimtrace.xz
0xe530c00 : 4 curr: 4
0xe530710 : 3
After Swap:
Trace File 1: 0xe530c00
Trace File 2: 0xe530710
Gunzip Command 1: xz -dc ../utility-based-partitioning/server_033.champsimtrace.xz
Gunzip Command 2: xz -dc ../utility-based-partitioning/server_034.champsimtrace.xz
Successfully read from the swapped trace file.
Before Swap:
Trace File 1: 0xe530c00
Trace File 2: 0xe5312c0
Gunzip Command 1: xz -dc ../utility-based-partitioning/server_033.champsimtrace.xz
Gunzip Command 2: xz -dc ../utility-based-partitioning/server_032.champsimtrace.xz
0xe5312c0 : 5 curr: 5
0xe530c00 : 4
After Swap:
Trace File 1: 0xe5312c0
Trace File 2: 0xe530c00
Gunzip Command 1: xz -dc ../utility-based-partitioning/server_032.champsimtrace.xz
Gunzip Command 2: xz -dc ../utility-based-partitioning/server_033.champsimtrace.xz
Successfully read from the swapped trace file.
Heartbeat CPU 0 instructions: 90000001 cycles: 301633712 heartbeat IPC: 0.21487 cumulative IPC: 0.220567 (Simulation time: 0 hr 12 min 36 sec) 
Before Swap:
Trace File 1: 0xe5312c0
Trace File 2: 0xe531980
Gunzip Command 1: xz -dc ../utility-based-partitioning/server_032.champsimtrace.xz
Gunzip Command 2: xz -dc ../utility-based-partitioning/server_031.champsimtrace.xz
0xe531980 : 6 curr: 6
0xe5312c0 : 5
After Swap:
Trace File 1: 0xe531980
Trace File 2: 0xe5312c0
Gunzip Command 1: xz -dc ../utility-based-partitioning/server_031.champsimtrace.xz
Gunzip Command 2: xz -dc ../utility-based-partitioning/server_032.champsimtrace.xz
Successfully read from the swapped trace file.
Before Swap:
Trace File 1: 0xe531980
Trace File 2: 0xe532040
Gunzip Command 1: xz -dc ../utility-based-partitioning/server_031.champsimtrace.xz
Gunzip Command 2: xz -dc ../utility-based-partitioning/server_030.champsimtrace.xz
0xe532040 : 7 curr: 0
0xe531980 : 6
After Swap:
Trace File 1: 0xe532040
Trace File 2: 0xe531980
Gunzip Command 1: xz -dc ../utility-based-partitioning/server_030.champsimtrace.xz
Gunzip Command 2: xz -dc ../utility-based-partitioning/server_031.champsimtrace.xz
Successfully read from the swapped trace file.
Heartbeat CPU 0 instructions: 100000003 cycles: 348466652 heartbeat IPC: 0.213525 cumulative IPC: 0.219601 (Simulation time: 0 hr 14 min 15 sec) 
Before Swap:
Trace File 1: 0xe532040
Trace File 2: 0xe531ce0
Gunzip Command 1: xz -dc ../utility-based-partitioning/server_030.champsimtrace.xz
Gunzip Command 2: xz -dc ../utility-based-partitioning/server_037.champsimtrace.xz
0xe531ce0 : 0 curr: 1
0xe532040 : 7
After Swap:
Trace File 1: 0xe531ce0
Trace File 2: 0xe532040
Gunzip Command 1: xz -dc ../utility-based-partitioning/server_037.champsimtrace.xz
Gunzip Command 2: xz -dc ../utility-based-partitioning/server_030.champsimtrace.xz
Successfully read from the swapped trace file.
Before Swap:
Trace File 1: 0xe531ce0
Trace File 2: 0xe5301d0
Gunzip Command 1: xz -dc ../utility-based-partitioning/server_037.champsimtrace.xz
Gunzip Command 2: xz -dc ../utility-based-partitioning/server_038.champsimtrace.xz
0xe5301d0 : 1 curr: 2
0xe531ce0 : 0
After Swap:
Trace File 1: 0xe5301d0
Trace File 2: 0xe531ce0
Gunzip Command 1: xz -dc ../utility-based-partitioning/server_038.champsimtrace.xz
Gunzip Command 2: xz -dc ../utility-based-partitioning/server_037.champsimtrace.xz
Successfully read from the swapped trace file.
Heartbeat CPU 0 instructions: 110000000 cycles: 395549336 heartbeat IPC: 0.212392 cumulative IPC: 0.218728 (Simulation time: 0 hr 15 min 47 sec) 
Before Swap:
Trace File 1: 0xe5301d0
Trace File 2: 0xe530470
Gunzip Command 1: xz -dc ../utility-based-partitioning/server_038.champsimtrace.xz
Gunzip Command 2: xz -dc ../utility-based-partitioning/server_039.champsimtrace.xz
0xe530470 : 2 curr: 3
0xe5301d0 : 1
After Swap:
Trace File 1: 0xe530470
Trace File 2: 0xe5301d0
Gunzip Command 1: xz -dc ../utility-based-partitioning/server_039.champsimtrace.xz
Gunzip Command 2: xz -dc ../utility-based-partitioning/server_038.champsimtrace.xz
Successfully read from the swapped trace file.
Before Swap:
Trace File 1: 0xe530470
Trace File 2: 0xe530710
Gunzip Command 1: xz -dc ../utility-based-partitioning/server_039.champsimtrace.xz
Gunzip Command 2: xz -dc ../utility-based-partitioning/server_034.champsimtrace.xz
0xe530710 : 3 curr: 4
0xe530470 : 2
After Swap:
Trace File 1: 0xe530710
Trace File 2: 0xe530470
Gunzip Command 1: xz -dc ../utility-based-partitioning/server_034.champsimtrace.xz
Gunzip Command 2: xz -dc ../utility-based-partitioning/server_039.champsimtrace.xz
Successfully read from the swapped trace file.
Heartbeat CPU 0 instructions: 120000002 cycles: 439772413 heartbeat IPC: 0.226126 cumulative IPC: 0.219484 (Simulation time: 0 hr 16 min 59 sec) 
Before Swap:
Trace File 1: 0xe530710
Trace File 2: 0xe530c00
Gunzip Command 1: xz -dc ../utility-based-partitioning/server_034.champsimtrace.xz
Gunzip Command 2: xz -dc ../utility-based-partitioning/server_033.champsimtrace.xz
0xe530c00 : 4 curr: 5
0xe530710 : 3
After Swap:
Trace File 1: 0xe530c00
Trace File 2: 0xe530710
Gunzip Command 1: xz -dc ../utility-based-partitioning/server_033.champsimtrace.xz
Gunzip Command 2: xz -dc ../utility-based-partitioning/server_034.champsimtrace.xz
Successfully read from the swapped trace file.
Before Swap:
Trace File 1: 0xe530c00
Trace File 2: 0xe5312c0
Gunzip Command 1: xz -dc ../utility-based-partitioning/server_033.champsimtrace.xz
Gunzip Command 2: xz -dc ../utility-based-partitioning/server_032.champsimtrace.xz
0xe5312c0 : 5 curr: 6
0xe530c00 : 4
After Swap:
Trace File 1: 0xe5312c0
Trace File 2: 0xe530c00
Gunzip Command 1: xz -dc ../utility-based-partitioning/server_032.champsimtrace.xz
Gunzip Command 2: xz -dc ../utility-based-partitioning/server_033.champsimtrace.xz
Successfully read from the swapped trace file.
Finished CPU 0 instructions: 100000002 cycles: 455967310 cumulative IPC: 0.219314 (Simulation time: 0 hr 17 min 37 sec) 

ChampSim completed all CPUs

Region of Interest Statistics
MPKI for 0xe5301d0 trace file: 133.493
MPKI for 0xe530470 trace file: 89.2954
MPKI for 0xe530710 trace file: 116.176
MPKI for 0xe530c00 trace file: 100.317
MPKI for 0xe5312c0 trace file: 106.49
MPKI for 0xe531980 trace file: 108.301
MPKI for 0xe531ce0 trace file: 107.805
MPKI for 0xe532040 trace file: 106.702

CPU 0 cumulative IPC: 0.219314 instructions: 100000002 cycles: 455967310
check utility
0 0 0 0 0 0 
0 0 0 0 0 0 
1 0 0 0 0 0 
0 0 0 0 0 0 
1 0 0 0 0 0 
1 0 0 0 0 0 
1 0 0 0 0 0 
1 0 0 0 0 0 
ITLB TOTAL     ACCESS:   18096266  HIT:   16974343  MISS:    1121923  HIT %:    93.8003  MISS %:    6.19975   MPKI: 11.2192
ITLB LOAD TRANSLATION ACCESS:   18096266  HIT:   16974343  MISS:    1121923  HIT %:    93.8003  MISS %:    6.19975   MPKI: 11.2192
ITLB PREFETCH  REQUESTED:          0  ISSUED:          0  USEFUL:          0  USELESS:          0
ITLB USEFUL LOAD PREFETCHES:          0 PREFETCH ISSUED TO LOWER LEVEL:          0  ACCURACY: -nan
ITLB TIMELY PREFETCHES:          0 LATE PREFETCHES: 0 DROPPED PREFETCHES: 0
ITLB PREFETCHES SAME FILL-ORIGIN LEVEL: 0 DIFFERENT FILL-ORIGIN LEVEL: 0
ITLB AVERAGE MISS LATENCY: 9.22309 cycles
ITLB RQ	ACCESS:   21482300	FORWARD:          0	MERGED:    3155383	TO_CACHE:   18326917

DTLB TOTAL     ACCESS:   22485393  HIT:   21589806  MISS:     895587  HIT %:     96.017  MISS %:    3.98297   MPKI: 8.95587
DTLB LOAD TRANSLATION ACCESS:   22485393  HIT:   21589806  MISS:     895587  HIT %:     96.017  MISS %:    3.98297   MPKI: 8.95587
DTLB PREFETCH  REQUESTED:          0  ISSUED:          0  USEFUL:          0  USELESS:          0
DTLB USEFUL LOAD PREFETCHES:          0 PREFETCH ISSUED TO LOWER LEVEL:          0  ACCURACY: -nan
DTLB TIMELY PREFETCHES:          0 LATE PREFETCHES: 0 DROPPED PREFETCHES: 0
DTLB PREFETCHES SAME FILL-ORIGIN LEVEL: 0 DIFFERENT FILL-ORIGIN LEVEL: 0
DTLB AVERAGE MISS LATENCY: 11.2787 cycles
DTLB RQ	ACCESS:   30062192	FORWARD:          0	MERGED:    7540355	TO_CACHE:   22521837

STLB TOTAL     ACCESS:    2017509  HIT:    2000634  MISS:      16875  HIT %:    99.1636  MISS %:   0.836427   MPKI: 0.16875
STLB LOAD TRANSLATION ACCESS:    2017509  HIT:    2000634  MISS:      16875  HIT %:    99.1636  MISS %:   0.836427   MPKI: 0.16875
STLB PREFETCH  REQUESTED:          0  ISSUED:          0  USEFUL:          0  USELESS:          0
STLB USEFUL LOAD PREFETCHES:          0 PREFETCH ISSUED TO LOWER LEVEL:          0  ACCURACY: -nan
STLB TIMELY PREFETCHES:          0 LATE PREFETCHES: 0 DROPPED PREFETCHES: 0
STLB PREFETCHES SAME FILL-ORIGIN LEVEL: 0 DIFFERENT FILL-ORIGIN LEVEL: 0
STLB AVERAGE MISS LATENCY: 134.933 cycles
STLB RQ	ACCESS:    2017509	FORWARD:          0	MERGED:          0	TO_CACHE:    2017509

STLB Hit, L1D data hit: 0
STLB Hit, L2C data hit: 0
STLB Hit, LLC data hit: 0
STLB Hit, LLC data miss: 0
STLB STLB hints to L2: 0
L1D TOTAL     ACCESS:   29667474  HIT:   28326687  MISS:    1340787  HIT %:    95.4806  MISS %:    4.51938   MPKI: 13.4079
L1D LOAD      ACCESS:   17086339  HIT:   16011367  MISS:    1074972  HIT %:    93.7086  MISS %:    6.29141   MPKI: 10.7497
L1D RFO       ACCESS:   12581135  HIT:   12315320  MISS:     265815  HIT %:    97.8872  MISS %:    2.11281   MPKI: 2.65815
L1D PREFETCH  REQUESTED:          0  ISSUED:          0  USEFUL:          0  USELESS:          0
L1D USEFUL LOAD PREFETCHES:          0 PREFETCH ISSUED TO LOWER LEVEL:          0  ACCURACY: -nan
L1D TIMELY PREFETCHES:          0 LATE PREFETCHES: 0 DROPPED PREFETCHES: 0
L1D PREFETCHES SAME FILL-ORIGIN LEVEL: 0 DIFFERENT FILL-ORIGIN LEVEL: 0
L1D AVERAGE MISS LATENCY: 32.7855 cycles
L1D RQ	ACCESS:   23176973	FORWARD:          0	MERGED:    5950966	TO_CACHE:   17126383
L1D WQ	ACCESS:   13008585	FORWARD:      99624	MERGED:      72776	TO_CACHE:   12935809

L1D UNIQUE REGIONS ACCESSED: 0
L1D REGIONS CONFLICTS: 0
L1D Cross Page Prefetch Requests: 0
L1D Same Page Prefetch Requests: 0
L1D ROI Sum of L1D PQ occupancy: 0
L1D PREFETCHES PUSHED FROM L2C: 0
L1I TOTAL     ACCESS:   20736034  HIT:   14043009  MISS:    6693025  HIT %:    67.7227  MISS %:    32.2773   MPKI: 66.9302
L1I LOAD      ACCESS:   20736034  HIT:   14043009  MISS:    6693025  HIT %:    67.7227  MISS %:    32.2773   MPKI: 66.9302
L1I PREFETCH  REQUESTED:          0  ISSUED:          0  USEFUL:          0  USELESS:          0
L1I USEFUL LOAD PREFETCHES:          0 PREFETCH ISSUED TO LOWER LEVEL:          0  ACCURACY: -nan
L1I TIMELY PREFETCHES:          0 LATE PREFETCHES: 0 DROPPED PREFETCHES: 0
L1I PREFETCHES SAME FILL-ORIGIN LEVEL: 0 DIFFERENT FILL-ORIGIN LEVEL: 0
L1I AVERAGE MISS LATENCY: 15.1166 cycles
L1I RQ	ACCESS:   28266167	FORWARD:          0	MERGED:    6783867	TO_CACHE:   21482300

BTB TOTAL     ACCESS:   14509055  HIT:    3868544  MISS:   10640511  HIT %:     26.663  MISS %:     73.337   MPKI: 106.405
BTB BRANCH_DIRECT_JUMP	ACCESS:    1134234  HIT:     315210  MISS:     819024
BTB BRANCH_INDIRECT	ACCESS:    6281495  HIT:    1658650  MISS:    4622845
BTB BRANCH_CONDITIONAL	ACCESS:    2364456  HIT:    1142455  MISS:    1222001
BTB BRANCH_DIRECT_CALL	ACCESS:    1967275  HIT:     345063  MISS:    1622212
BTB BRANCH_INDIRECT_CALL	ACCESS:     397184  HIT:      69095  MISS:     328089
BTB BRANCH_RETURN	ACCESS:    2364411  HIT:     338071  MISS:    2026340
BTB BRANCH_OTHER ACCESS:          0  HIT:          0  MISS:          0

L2C TOTAL     ACCESS:    8651557  HIT:    8259065  MISS:     392492  HIT %:    95.4633  MISS %:    4.53666   MPKI: 3.92492
L2C LOAD      ACCESS:    7767996  HIT:    7439833  MISS:     328163  HIT %:    95.7754  MISS %:    4.22455   MPKI: 3.28163
L2C DATA LOAD MPKI: 1.93375
L2C INSTRUCTION LOAD MPKI: 1.34788
L2C RFO       ACCESS:     265814  HIT:     214737  MISS:      51077  HIT %:    80.7847  MISS %:    19.2153   MPKI: 0.51077
L2C WRITEBACK ACCESS:     596974  HIT:     593336  MISS:       3638  HIT %:    99.3906  MISS %:   0.609407   MPKI: 0.03638
L2C LOAD TRANSLATION ACCESS:      20773  HIT:      11159  MISS:       9614  HIT %:    53.7188  MISS %:    46.2812   MPKI: 0.09614
L2C PREFETCH  REQUESTED:          0  ISSUED:          0  USEFUL:          0  USELESS:          0
L2C USEFUL LOAD PREFETCHES:          0 PREFETCH ISSUED TO LOWER LEVEL:          0  ACCURACY: -nan
L2C TIMELY PREFETCHES:          0 LATE PREFETCHES: 0 DROPPED PREFETCHES: 0
L2C PREFETCHES SAME FILL-ORIGIN LEVEL: 0 DIFFERENT FILL-ORIGIN LEVEL: 0
L2C AVERAGE MISS LATENCY: 81.5562 cycles
L2C RQ	ACCESS:    8054586	FORWARD:          0	MERGED:          0	TO_CACHE:    8054584
L2C WQ	ACCESS:     596974	FORWARD:          2	MERGED:          0	TO_CACHE:     596974

L2C Instructions Evicting Data 59035
L2C Translations Evicting Data 7359
L2C Data Evicting Data 180415
L2C Instructions Evicting Instructions 73913
L2C Translations Evicting Instructions 1795
L2C Data Evicting Instructions 56622
L2C Instructions Evicting Translations 1840
L2C Translations Evicting Translations 460
L2C Data Evicting Translations 7409
L2C Dense regions hint from L2: 0
PSCL5 TOTAL     ACCESS:      16875  HIT:      16875  MISS:          0  HIT %:        100  MISS %:          0   MPKI: 0
PSCL5 LOAD TRANSLATION ACCESS:      16875  HIT:      16875  MISS:          0  HIT %:        100  MISS %:          0   MPKI: 0
PSCL5 PREFETCH  REQUESTED:          0  ISSUED:          0  USEFUL:          0  USELESS:          0
PSCL5 USEFUL LOAD PREFETCHES:          0 PREFETCH ISSUED TO LOWER LEVEL:          0  ACCURACY: -nan
PSCL5 TIMELY PREFETCHES:          0 LATE PREFETCHES: 0 DROPPED PREFETCHES: 0
PSCL5 PREFETCHES SAME FILL-ORIGIN LEVEL: 0 DIFFERENT FILL-ORIGIN LEVEL: 0

PSCL4 TOTAL     ACCESS:      14670  HIT:      14557  MISS:        113  HIT %:    99.2297  MISS %:   0.770279   MPKI: 0.00113
PSCL4 LOAD TRANSLATION ACCESS:      14670  HIT:      14557  MISS:        113  HIT %:    99.2297  MISS %:   0.770279   MPKI: 0.00113
PSCL4 PREFETCH  REQUESTED:          0  ISSUED:          0  USEFUL:          0  USELESS:          0
PSCL4 USEFUL LOAD PREFETCHES:          0 PREFETCH ISSUED TO LOWER LEVEL:          0  ACCURACY: -nan
PSCL4 TIMELY PREFETCHES:          0 LATE PREFETCHES: 0 DROPPED PREFETCHES: 0
PSCL4 PREFETCHES SAME FILL-ORIGIN LEVEL: 0 DIFFERENT FILL-ORIGIN LEVEL: 0

PSCL3 TOTAL     ACCESS:      16603  HIT:      16445  MISS:        158  HIT %:    99.0484  MISS %:   0.951635   MPKI: 0.00158
PSCL3 LOAD TRANSLATION ACCESS:      16603  HIT:      16445  MISS:        158  HIT %:    99.0484  MISS %:   0.951635   MPKI: 0.00158
PSCL3 PREFETCH  REQUESTED:          0  ISSUED:          0  USEFUL:          0  USELESS:          0
PSCL3 USEFUL LOAD PREFETCHES:          0 PREFETCH ISSUED TO LOWER LEVEL:          0  ACCURACY: -nan
PSCL3 TIMELY PREFETCHES:          0 LATE PREFETCHES: 0 DROPPED PREFETCHES: 0
PSCL3 PREFETCHES SAME FILL-ORIGIN LEVEL: 0 DIFFERENT FILL-ORIGIN LEVEL: 0

PSCL2 TOTAL     ACCESS:      16875  HIT:      13042  MISS:       3833  HIT %:    77.2859  MISS %:    22.7141   MPKI: 0.03833
PSCL2 LOAD TRANSLATION ACCESS:      16875  HIT:      13042  MISS:       3833  HIT %:    77.2859  MISS %:    22.7141   MPKI: 0.03833
PSCL2 PREFETCH  REQUESTED:          0  ISSUED:          0  USEFUL:          0  USELESS:          0
PSCL2 USEFUL LOAD PREFETCHES:          0 PREFETCH ISSUED TO LOWER LEVEL:          0  ACCURACY: -nan
PSCL2 TIMELY PREFETCHES:          0 LATE PREFETCHES: 0 DROPPED PREFETCHES: 0
PSCL2 PREFETCHES SAME FILL-ORIGIN LEVEL: 0 DIFFERENT FILL-ORIGIN LEVEL: 0

LLC TOTAL     ACCESS:     519094  HIT:     387168  MISS:     131926  HIT %:    74.5853  MISS %:    25.4147   MPKI: 1.31926
LLC LOAD      ACCESS:     328163  HIT:     222905  MISS:     105258  HIT %:    67.9251  MISS %:    32.0749   MPKI: 1.05258
LLC RFO       ACCESS:      51077  HIT:      30337  MISS:      20740  HIT %:    59.3946  MISS %:    40.6054   MPKI: 0.2074
LLC WRITEBACK ACCESS:     130240  HIT:     130013  MISS:        227  HIT %:    99.8257  MISS %:   0.174294   MPKI: 0.00227
LLC LOAD TRANSLATION ACCESS:       9614  HIT:       3913  MISS:       5701  HIT %:    40.7011  MISS %:    59.2989   MPKI: 0.05701
LLC PREFETCH  REQUESTED:          0  ISSUED:          0  USEFUL:          0  USELESS:          0
LLC USEFUL LOAD PREFETCHES:          0 PREFETCH ISSUED TO LOWER LEVEL:          0  ACCURACY: -nan
LLC TIMELY PREFETCHES:          0 LATE PREFETCHES: 0 DROPPED PREFETCHES: 0
LLC PREFETCHES SAME FILL-ORIGIN LEVEL: 0 DIFFERENT FILL-ORIGIN LEVEL: 0
LLC AVERAGE MISS LATENCY: 154.02 cycles
LLC RQ	ACCESS:     388854	FORWARD:          0	MERGED:          0	TO_CACHE:     388854
LLC WQ	ACCESS:     130240	FORWARD:          0	MERGED:          0	TO_CACHE:     130240

LLC Dense regions hint to LLC: 0

RAW hits: 614893
Loads Generated: 23791866
Loads sent to L1D: 23176973
Stores Generated: 13008585
Stores sent to L1D: 13008585
Major fault: 0 Minor fault: 9610
Allocated PAGES: 9610

DRAM Statistics
 CHANNEL 0
 RQ ROW_BUFFER_HIT:      27421  ROW_BUFFER_MISS:     104278
 DBUS_CONGESTED:         23
 WQ ROW_BUFFER_HIT:      10590  ROW_BUFFER_MISS:      35002  FULL:          0

 AVG_CONGESTED_CYCLE: 5
 All warmup complete: 2
Channel 0 Bank busy for read cycles: 0
Channel 0 Bank busy for write cycles: 0
Channel 0
Rank 0
0banks busy for read cycles: 436062277
0banks busy for write cycles: 27083
1banks busy for read cycles: 11671362
1banks busy for write cycles: 4560922
2banks busy for read cycles: 1430441
2banks busy for write cycles: 1013116
3banks busy for read cycles: 331709
3banks busy for write cycles: 300753
4banks busy for read cycles: 111954
4banks busy for write cycles: 110822
5banks busy for read cycles: 42011
5banks busy for write cycles: 60906
6banks busy for read cycles: 37202
6banks busy for write cycles: 49063
7banks busy for read cycles: 43406
7banks busy for write cycles: 35373
8banks busy for read cycles: 37697
8banks busy for write cycles: 41214

CPU 0 Branch Prediction Accuracy: 96.054% MPKI: 6.9774 Average ROB Occupancy at Mispredict: 6.05111
Branch types
NOT_BRANCH: 82317555 82.3176%
BRANCH_DIRECT_JUMP: 1134234 1.13423%
BRANCH_INDIRECT: 6281495 6.28149%
BRANCH_CONDITIONAL: 5537750 5.53775%
BRANCH_DIRECT_CALL: 1967275 1.96727%
BRANCH_INDIRECT_CALL: 397184 0.397184%
BRANCH_RETURN: 2364411 2.36441%
BRANCH_OTHER: 0 0%

DRAM PAGES: 1048576
Allocated PAGES: 9610
