
*** ChampSim Multicore Out-of-Order Simulator ***

Warmup Instructions: 25000000
Simulation Instructions: 100000000
Number of CPUs: 1
LLC sets: 2048
LLC ways: 16
Off-chip DRAM Size: 4096 MB Channels: 1 Width: 64-bit Data Rate: 6400 MT/s
CPU 0 runs ../utility-based-partitioning/server_034.champsimtrace.xz
AAAAA
.xz
../utility-based-partitioning/server_034.champsimtrace.xz 0
ABDUBDIBDIBDIBD
0x49c8850
CPU 0 runs ../utility-based-partitioning/server_033.champsimtrace.xz
AAAAA
.xz
../utility-based-partitioning/server_033.champsimtrace.xz 1
0x49c8af0
CPU 0 runs ../utility-based-partitioning/server_032.champsimtrace.xz
AAAAA
.xz
../utility-based-partitioning/server_032.champsimtrace.xz 2
0x49c8d90
CPU 0 runs ../utility-based-partitioning/server_031.champsimtrace.xz
AAAAA
.xz
../utility-based-partitioning/server_031.champsimtrace.xz 3
0x49c9030
CPU 0 Bimodal branch predictor
BTB has LRU replacement policy
ITLB has LRU replacement policy
DTLB has LRU replacement policy
STLB has LRU replacement policy
L1I has LRU replacement policy
L1D has LRU replacement policy
L2C has LRU replacement policy
LLC has LRU replacement policy
Heartbeat CPU 0 instructions: 10000001 cycles: 2796968 heartbeat IPC: 3.5753 cumulative IPC: 3.5753 (Simulation time: 0 hr 0 min 25 sec) 
Heartbeat CPU 0 instructions: 20000003 cycles: 5588693 heartbeat IPC: 3.58202 cumulative IPC: 3.57865 (Simulation time: 0 hr 0 min 48 sec) 

Warmup complete CPU 0 instructions: 25000004 cycles: 6986465 (Simulation time: 0 hr 1 min 4 sec) 

Before Swap:
Trace File 1: 0x49c8ee0
Trace File 2: 0x49c8af0
Gunzip Command 1: xz -dc ../utility-based-partitioning/server_034.champsimtrace.xz
Gunzip Command 2: xz -dc ../utility-based-partitioning/server_033.champsimtrace.xz
0x49c8af0 : 1 curr: 0
0x49c8ee0 : 0
After Swap:
Trace File 1: 0x49c8af0
Trace File 2: 0x49c8ee0
Gunzip Command 1: xz -dc ../utility-based-partitioning/server_033.champsimtrace.xz
Gunzip Command 2: xz -dc ../utility-based-partitioning/server_034.champsimtrace.xz
Successfully read from the swapped trace file.
Heartbeat CPU 0 instructions: 30000002 cycles: 28230118 heartbeat IPC: 0.441668 cumulative IPC: 0.235364 (Simulation time: 0 hr 2 min 5 sec) 
Before Swap:
Trace File 1: 0x49c8af0
Trace File 2: 0x49c8d90
Gunzip Command 1: xz -dc ../utility-based-partitioning/server_033.champsimtrace.xz
Gunzip Command 2: xz -dc ../utility-based-partitioning/server_032.champsimtrace.xz
0x49c8d90 : 2 curr: 1
0x49c8af0 : 1
After Swap:
Trace File 1: 0x49c8d90
Trace File 2: 0x49c8af0
Gunzip Command 1: xz -dc ../utility-based-partitioning/server_032.champsimtrace.xz
Gunzip Command 2: xz -dc ../utility-based-partitioning/server_033.champsimtrace.xz
Successfully read from the swapped trace file.
Before Swap:
Trace File 1: 0x49c8d90
Trace File 2: 0x49c9030
Gunzip Command 1: xz -dc ../utility-based-partitioning/server_032.champsimtrace.xz
Gunzip Command 2: xz -dc ../utility-based-partitioning/server_031.champsimtrace.xz
0x49c9030 : 3 curr: 2
0x49c8d90 : 2
After Swap:
Trace File 1: 0x49c9030
Trace File 2: 0x49c8d90
Gunzip Command 1: xz -dc ../utility-based-partitioning/server_031.champsimtrace.xz
Gunzip Command 2: xz -dc ../utility-based-partitioning/server_032.champsimtrace.xz
Successfully read from the swapped trace file.
Heartbeat CPU 0 instructions: 40000000 cycles: 73832003 heartbeat IPC: 0.219289 cumulative IPC: 0.224398 (Simulation time: 0 hr 3 min 49 sec) 
Before Swap:
Trace File 1: 0x49c9030
Trace File 2: 0x49c8ee0
Gunzip Command 1: xz -dc ../utility-based-partitioning/server_031.champsimtrace.xz
Gunzip Command 2: xz -dc ../utility-based-partitioning/server_034.champsimtrace.xz
0x49c8ee0 : 0 curr: 0
0x49c9030 : 3
After Swap:
Trace File 1: 0x49c8ee0
Trace File 2: 0x49c9030
Gunzip Command 1: xz -dc ../utility-based-partitioning/server_034.champsimtrace.xz
Gunzip Command 2: xz -dc ../utility-based-partitioning/server_031.champsimtrace.xz
Successfully read from the swapped trace file.
Before Swap:
Trace File 1: 0x49c8ee0
Trace File 2: 0x49c8af0
Gunzip Command 1: xz -dc ../utility-based-partitioning/server_034.champsimtrace.xz
Gunzip Command 2: xz -dc ../utility-based-partitioning/server_033.champsimtrace.xz
0x49c8af0 : 1 curr: 1
0x49c8ee0 : 0
After Swap:
Trace File 1: 0x49c8af0
Trace File 2: 0x49c8ee0
Gunzip Command 1: xz -dc ../utility-based-partitioning/server_033.champsimtrace.xz
Gunzip Command 2: xz -dc ../utility-based-partitioning/server_034.champsimtrace.xz
Successfully read from the swapped trace file.
Heartbeat CPU 0 instructions: 50000000 cycles: 117136173 heartbeat IPC: 0.230925 cumulative IPC: 0.226964 (Simulation time: 0 hr 5 min 43 sec) 
Before Swap:
Trace File 1: 0x49c8af0
Trace File 2: 0x49c8d90
Gunzip Command 1: xz -dc ../utility-based-partitioning/server_033.champsimtrace.xz
Gunzip Command 2: xz -dc ../utility-based-partitioning/server_032.champsimtrace.xz
0x49c8d90 : 2 curr: 2
0x49c8af0 : 1
After Swap:
Trace File 1: 0x49c8d90
Trace File 2: 0x49c8af0
Gunzip Command 1: xz -dc ../utility-based-partitioning/server_032.champsimtrace.xz
Gunzip Command 2: xz -dc ../utility-based-partitioning/server_033.champsimtrace.xz
Successfully read from the swapped trace file.
Before Swap:
Trace File 1: 0x49c8d90
Trace File 2: 0x49c9030
Gunzip Command 1: xz -dc ../utility-based-partitioning/server_032.champsimtrace.xz
Gunzip Command 2: xz -dc ../utility-based-partitioning/server_031.champsimtrace.xz
0x49c9030 : 3 curr: 0
0x49c8d90 : 2
After Swap:
Trace File 1: 0x49c9030
Trace File 2: 0x49c8d90
Gunzip Command 1: xz -dc ../utility-based-partitioning/server_031.champsimtrace.xz
Gunzip Command 2: xz -dc ../utility-based-partitioning/server_032.champsimtrace.xz
Successfully read from the swapped trace file.
Heartbeat CPU 0 instructions: 60000000 cycles: 162391268 heartbeat IPC: 0.22097 cumulative IPC: 0.225218 (Simulation time: 0 hr 7 min 48 sec) 
Before Swap:
Trace File 1: 0x49c9030
Trace File 2: 0x49c8ee0
Gunzip Command 1: xz -dc ../utility-based-partitioning/server_031.champsimtrace.xz
Gunzip Command 2: xz -dc ../utility-based-partitioning/server_034.champsimtrace.xz
0x49c8ee0 : 0 curr: 1
0x49c9030 : 3
After Swap:
Trace File 1: 0x49c8ee0
Trace File 2: 0x49c9030
Gunzip Command 1: xz -dc ../utility-based-partitioning/server_034.champsimtrace.xz
Gunzip Command 2: xz -dc ../utility-based-partitioning/server_031.champsimtrace.xz
Successfully read from the swapped trace file.
Before Swap:
Trace File 1: 0x49c8ee0
Trace File 2: 0x49c8af0
Gunzip Command 1: xz -dc ../utility-based-partitioning/server_034.champsimtrace.xz
Gunzip Command 2: xz -dc ../utility-based-partitioning/server_033.champsimtrace.xz
0x49c8af0 : 1 curr: 2
0x49c8ee0 : 0
After Swap:
Trace File 1: 0x49c8af0
Trace File 2: 0x49c8ee0
Gunzip Command 1: xz -dc ../utility-based-partitioning/server_033.champsimtrace.xz
Gunzip Command 2: xz -dc ../utility-based-partitioning/server_034.champsimtrace.xz
Successfully read from the swapped trace file.
Heartbeat CPU 0 instructions: 70000000 cycles: 205397903 heartbeat IPC: 0.232522 cumulative IPC: 0.226801 (Simulation time: 0 hr 9 min 30 sec) 
Before Swap:
Trace File 1: 0x49c8af0
Trace File 2: 0x49c8d90
Gunzip Command 1: xz -dc ../utility-based-partitioning/server_033.champsimtrace.xz
Gunzip Command 2: xz -dc ../utility-based-partitioning/server_032.champsimtrace.xz
0x49c8d90 : 2 curr: 0
0x49c8af0 : 1
After Swap:
Trace File 1: 0x49c8d90
Trace File 2: 0x49c8af0
Gunzip Command 1: xz -dc ../utility-based-partitioning/server_032.champsimtrace.xz
Gunzip Command 2: xz -dc ../utility-based-partitioning/server_033.champsimtrace.xz
Successfully read from the swapped trace file.
Before Swap:
Trace File 1: 0x49c8d90
Trace File 2: 0x49c9030
Gunzip Command 1: xz -dc ../utility-based-partitioning/server_032.champsimtrace.xz
Gunzip Command 2: xz -dc ../utility-based-partitioning/server_031.champsimtrace.xz
0x49c9030 : 3 curr: 1
0x49c8d90 : 2
After Swap:
Trace File 1: 0x49c9030
Trace File 2: 0x49c8d90
Gunzip Command 1: xz -dc ../utility-based-partitioning/server_031.champsimtrace.xz
Gunzip Command 2: xz -dc ../utility-based-partitioning/server_032.champsimtrace.xz
Successfully read from the swapped trace file.
Heartbeat CPU 0 instructions: 80000003 cycles: 250855420 heartbeat IPC: 0.219986 cumulative IPC: 0.225531 (Simulation time: 0 hr 11 min 8 sec) 
Before Swap:
Trace File 1: 0x49c9030
Trace File 2: 0x49c8ee0
Gunzip Command 1: xz -dc ../utility-based-partitioning/server_031.champsimtrace.xz
Gunzip Command 2: xz -dc ../utility-based-partitioning/server_034.champsimtrace.xz
0x49c8ee0 : 0 curr: 2
0x49c9030 : 3
After Swap:
Trace File 1: 0x49c8ee0
Trace File 2: 0x49c9030
Gunzip Command 1: xz -dc ../utility-based-partitioning/server_034.champsimtrace.xz
Gunzip Command 2: xz -dc ../utility-based-partitioning/server_031.champsimtrace.xz
Successfully read from the swapped trace file.
Before Swap:
Trace File 1: 0x49c8ee0
Trace File 2: 0x49c8af0
Gunzip Command 1: xz -dc ../utility-based-partitioning/server_034.champsimtrace.xz
Gunzip Command 2: xz -dc ../utility-based-partitioning/server_033.champsimtrace.xz
0x49c8af0 : 1 curr: 0
0x49c8ee0 : 0
After Swap:
Trace File 1: 0x49c8af0
Trace File 2: 0x49c8ee0
Gunzip Command 1: xz -dc ../utility-based-partitioning/server_033.champsimtrace.xz
Gunzip Command 2: xz -dc ../utility-based-partitioning/server_034.champsimtrace.xz
Successfully read from the swapped trace file.
Heartbeat CPU 0 instructions: 90000000 cycles: 293782038 heartbeat IPC: 0.232956 cumulative IPC: 0.226642 (Simulation time: 0 hr 12 min 44 sec) 
Before Swap:
Trace File 1: 0x49c8af0
Trace File 2: 0x49c8d90
Gunzip Command 1: xz -dc ../utility-based-partitioning/server_033.champsimtrace.xz
Gunzip Command 2: xz -dc ../utility-based-partitioning/server_032.champsimtrace.xz
0x49c8d90 : 2 curr: 1
0x49c8af0 : 1
After Swap:
Trace File 1: 0x49c8d90
Trace File 2: 0x49c8af0
Gunzip Command 1: xz -dc ../utility-based-partitioning/server_032.champsimtrace.xz
Gunzip Command 2: xz -dc ../utility-based-partitioning/server_033.champsimtrace.xz
Successfully read from the swapped trace file.
Before Swap:
Trace File 1: 0x49c8d90
Trace File 2: 0x49c9030
Gunzip Command 1: xz -dc ../utility-based-partitioning/server_032.champsimtrace.xz
Gunzip Command 2: xz -dc ../utility-based-partitioning/server_031.champsimtrace.xz
0x49c9030 : 3 curr: 2
0x49c8d90 : 2
After Swap:
Trace File 1: 0x49c9030
Trace File 2: 0x49c8d90
Gunzip Command 1: xz -dc ../utility-based-partitioning/server_031.champsimtrace.xz
Gunzip Command 2: xz -dc ../utility-based-partitioning/server_032.champsimtrace.xz
Successfully read from the swapped trace file.
Heartbeat CPU 0 instructions: 100000000 cycles: 339301865 heartbeat IPC: 0.219684 cumulative IPC: 0.225689 (Simulation time: 0 hr 14 min 12 sec) 
Before Swap:
Trace File 1: 0x49c9030
Trace File 2: 0x49c8ee0
Gunzip Command 1: xz -dc ../utility-based-partitioning/server_031.champsimtrace.xz
Gunzip Command 2: xz -dc ../utility-based-partitioning/server_034.champsimtrace.xz
0x49c8ee0 : 0 curr: 0
0x49c9030 : 3
After Swap:
Trace File 1: 0x49c8ee0
Trace File 2: 0x49c9030
Gunzip Command 1: xz -dc ../utility-based-partitioning/server_034.champsimtrace.xz
Gunzip Command 2: xz -dc ../utility-based-partitioning/server_031.champsimtrace.xz
Successfully read from the swapped trace file.
Before Swap:
Trace File 1: 0x49c8ee0
Trace File 2: 0x49c8af0
Gunzip Command 1: xz -dc ../utility-based-partitioning/server_034.champsimtrace.xz
Gunzip Command 2: xz -dc ../utility-based-partitioning/server_033.champsimtrace.xz
0x49c8af0 : 1 curr: 1
0x49c8ee0 : 0
After Swap:
Trace File 1: 0x49c8af0
Trace File 2: 0x49c8ee0
Gunzip Command 1: xz -dc ../utility-based-partitioning/server_033.champsimtrace.xz
Gunzip Command 2: xz -dc ../utility-based-partitioning/server_034.champsimtrace.xz
Successfully read from the swapped trace file.
Heartbeat CPU 0 instructions: 110000000 cycles: 382096323 heartbeat IPC: 0.233675 cumulative IPC: 0.2266 (Simulation time: 0 hr 15 min 50 sec) 
Before Swap:
Trace File 1: 0x49c8af0
Trace File 2: 0x49c8d90
Gunzip Command 1: xz -dc ../utility-based-partitioning/server_033.champsimtrace.xz
Gunzip Command 2: xz -dc ../utility-based-partitioning/server_032.champsimtrace.xz
0x49c8d90 : 2 curr: 2
0x49c8af0 : 1
After Swap:
Trace File 1: 0x49c8d90
Trace File 2: 0x49c8af0
Gunzip Command 1: xz -dc ../utility-based-partitioning/server_032.champsimtrace.xz
Gunzip Command 2: xz -dc ../utility-based-partitioning/server_033.champsimtrace.xz
Successfully read from the swapped trace file.
Before Swap:
Trace File 1: 0x49c8d90
Trace File 2: 0x49c9030
Gunzip Command 1: xz -dc ../utility-based-partitioning/server_032.champsimtrace.xz
Gunzip Command 2: xz -dc ../utility-based-partitioning/server_031.champsimtrace.xz
0x49c9030 : 3 curr: 0
0x49c8d90 : 2
After Swap:
Trace File 1: 0x49c9030
Trace File 2: 0x49c8d90
Gunzip Command 1: xz -dc ../utility-based-partitioning/server_031.champsimtrace.xz
Gunzip Command 2: xz -dc ../utility-based-partitioning/server_032.champsimtrace.xz
Successfully read from the swapped trace file.
Heartbeat CPU 0 instructions: 120000000 cycles: 427970635 heartbeat IPC: 0.217987 cumulative IPC: 0.225662 (Simulation time: 0 hr 17 min 28 sec) 
Before Swap:
Trace File 1: 0x49c9030
Trace File 2: 0x49c8ee0
Gunzip Command 1: xz -dc ../utility-based-partitioning/server_031.champsimtrace.xz
Gunzip Command 2: xz -dc ../utility-based-partitioning/server_034.champsimtrace.xz
0x49c8ee0 : 0 curr: 1
0x49c9030 : 3
After Swap:
Trace File 1: 0x49c8ee0
Trace File 2: 0x49c9030
Gunzip Command 1: xz -dc ../utility-based-partitioning/server_034.champsimtrace.xz
Gunzip Command 2: xz -dc ../utility-based-partitioning/server_031.champsimtrace.xz
Successfully read from the swapped trace file.
Before Swap:
Trace File 1: 0x49c8ee0
Trace File 2: 0x49c8af0
Gunzip Command 1: xz -dc ../utility-based-partitioning/server_034.champsimtrace.xz
Gunzip Command 2: xz -dc ../utility-based-partitioning/server_033.champsimtrace.xz
0x49c8af0 : 1 curr: 2
0x49c8ee0 : 0
After Swap:
Trace File 1: 0x49c8af0
Trace File 2: 0x49c8ee0
Gunzip Command 1: xz -dc ../utility-based-partitioning/server_033.champsimtrace.xz
Gunzip Command 2: xz -dc ../utility-based-partitioning/server_034.champsimtrace.xz
Successfully read from the swapped trace file.
Finished CPU 0 instructions: 100000003 cycles: 442546882 cumulative IPC: 0.225965 (Simulation time: 0 hr 18 min 9 sec) 

ChampSim completed all CPUs

Region of Interest Statistics
MPKI for 0x49c8af0 trace file: 124.933
MPKI for 0x49c8d90 trace file: 89.3713
MPKI for 0x49c8ee0 trace file: 98.1268
MPKI for 0x49c9030 trace file: 100.963

CPU 0 cumulative IPC: 0.225965 instructions: 100000003 cycles: 442546882
check utility
0 0 0 0 0 0 
0 0 0 0 0 0 
0 0 0 0 0 0 
0 0 0 0 0 0 
ITLB TOTAL     ACCESS:   18130697  HIT:   17036326  MISS:    1094371  HIT %:     93.964  MISS %:    6.03601   MPKI: 10.9437
ITLB LOAD TRANSLATION ACCESS:   18130697  HIT:   17036326  MISS:    1094371  HIT %:     93.964  MISS %:    6.03601   MPKI: 10.9437
ITLB PREFETCH  REQUESTED:          0  ISSUED:          0  USEFUL:          0  USELESS:          0
ITLB USEFUL LOAD PREFETCHES:          0 PREFETCH ISSUED TO LOWER LEVEL:          0  ACCURACY: -nan
ITLB TIMELY PREFETCHES:          0 LATE PREFETCHES: 0 DROPPED PREFETCHES: 0
ITLB PREFETCHES SAME FILL-ORIGIN LEVEL: 0 DIFFERENT FILL-ORIGIN LEVEL: 0
ITLB AVERAGE MISS LATENCY: 9.26515 cycles
ITLB RQ	ACCESS:   21411603	FORWARD:          0	MERGED:    3069747	TO_CACHE:   18341856

DTLB TOTAL     ACCESS:   22568576  HIT:   21639788  MISS:     928788  HIT %:    95.8846  MISS %:     4.1154   MPKI: 9.28788
DTLB LOAD TRANSLATION ACCESS:   22568576  HIT:   21639788  MISS:     928788  HIT %:    95.8846  MISS %:     4.1154   MPKI: 9.28788
DTLB PREFETCH  REQUESTED:          0  ISSUED:          0  USEFUL:          0  USELESS:          0
DTLB USEFUL LOAD PREFETCHES:          0 PREFETCH ISSUED TO LOWER LEVEL:          0  ACCURACY: -nan
DTLB TIMELY PREFETCHES:          0 LATE PREFETCHES: 0 DROPPED PREFETCHES: 0
DTLB PREFETCHES SAME FILL-ORIGIN LEVEL: 0 DIFFERENT FILL-ORIGIN LEVEL: 0
DTLB AVERAGE MISS LATENCY: 11.4005 cycles
DTLB RQ	ACCESS:   30045679	FORWARD:          0	MERGED:    7449506	TO_CACHE:   22596173

STLB TOTAL     ACCESS:    2023159  HIT:    2001936  MISS:      21223  HIT %:     98.951  MISS %:      1.049   MPKI: 0.21223
STLB LOAD TRANSLATION ACCESS:    2023159  HIT:    2001936  MISS:      21223  HIT %:     98.951  MISS %:      1.049   MPKI: 0.21223
STLB PREFETCH  REQUESTED:          0  ISSUED:          0  USEFUL:          0  USELESS:          0
STLB USEFUL LOAD PREFETCHES:          0 PREFETCH ISSUED TO LOWER LEVEL:          0  ACCURACY: -nan
STLB TIMELY PREFETCHES:          0 LATE PREFETCHES: 0 DROPPED PREFETCHES: 0
STLB PREFETCHES SAME FILL-ORIGIN LEVEL: 0 DIFFERENT FILL-ORIGIN LEVEL: 0
STLB AVERAGE MISS LATENCY: 117.852 cycles
STLB RQ	ACCESS:    2023159	FORWARD:          0	MERGED:          0	TO_CACHE:    2023159

STLB Hit, L1D data hit: 0
STLB Hit, L2C data hit: 0
STLB Hit, LLC data hit: 0
STLB Hit, LLC data miss: 0
STLB STLB hints to L2: 0
L1D TOTAL     ACCESS:   29491500  HIT:   27725781  MISS:    1765719  HIT %:    94.0128  MISS %:    5.98721   MPKI: 17.6572
L1D LOAD      ACCESS:   16963510  HIT:   15582659  MISS:    1380851  HIT %:    91.8599  MISS %:    8.14013   MPKI: 13.8085
L1D RFO       ACCESS:   12527990  HIT:   12143122  MISS:     384868  HIT %:    96.9279  MISS %:    3.07207   MPKI: 3.84868
L1D PREFETCH  REQUESTED:          0  ISSUED:          0  USEFUL:          0  USELESS:          0
L1D USEFUL LOAD PREFETCHES:          0 PREFETCH ISSUED TO LOWER LEVEL:          0  ACCURACY: -nan
L1D TIMELY PREFETCHES:          0 LATE PREFETCHES: 0 DROPPED PREFETCHES: 0
L1D PREFETCHES SAME FILL-ORIGIN LEVEL: 0 DIFFERENT FILL-ORIGIN LEVEL: 0
L1D AVERAGE MISS LATENCY: 29.371 cycles
L1D RQ	ACCESS:   22823200	FORWARD:          0	MERGED:    5678197	TO_CACHE:   17010192
L1D WQ	ACCESS:   13122712	FORWARD:     134811	MERGED:      87225	TO_CACHE:   13035487

L1D UNIQUE REGIONS ACCESSED: 0
L1D REGIONS CONFLICTS: 0
L1D Cross Page Prefetch Requests: 0
L1D Same Page Prefetch Requests: 0
L1D ROI Sum of L1D PQ occupancy: 0
L1D PREFETCHES PUSHED FROM L2C: 0
L1I TOTAL     ACCESS:   20811796  HIT:   14704863  MISS:    6106933  HIT %:    70.6564  MISS %:    29.3436   MPKI: 61.0693
L1I LOAD      ACCESS:   20811796  HIT:   14704863  MISS:    6106933  HIT %:    70.6564  MISS %:    29.3436   MPKI: 61.0693
L1I PREFETCH  REQUESTED:          0  ISSUED:          0  USEFUL:          0  USELESS:          0
L1I USEFUL LOAD PREFETCHES:          0 PREFETCH ISSUED TO LOWER LEVEL:          0  ACCURACY: -nan
L1I TIMELY PREFETCHES:          0 LATE PREFETCHES: 0 DROPPED PREFETCHES: 0
L1I PREFETCHES SAME FILL-ORIGIN LEVEL: 0 DIFFERENT FILL-ORIGIN LEVEL: 0
L1I AVERAGE MISS LATENCY: 15.7218 cycles
L1I RQ	ACCESS:   28748325	FORWARD:          0	MERGED:    7336722	TO_CACHE:   21411603

BTB TOTAL     ACCESS:   15132220  HIT:    5399167  MISS:    9733053  HIT %:    35.6799  MISS %:    64.3201   MPKI: 97.3305
BTB BRANCH_DIRECT_JUMP	ACCESS:    1240385  HIT:     477856  MISS:     762529
BTB BRANCH_INDIRECT	ACCESS:    6403260  HIT:    2326556  MISS:    4076704
BTB BRANCH_CONDITIONAL	ACCESS:    2682725  HIT:    1604053  MISS:    1078672
BTB BRANCH_DIRECT_CALL	ACCESS:    2010811  HIT:     472671  MISS:    1538140
BTB BRANCH_INDIRECT_CALL	ACCESS:     392130  HIT:      79068  MISS:     313062
BTB BRANCH_RETURN	ACCESS:    2402909  HIT:     438963  MISS:    1963946
BTB BRANCH_OTHER ACCESS:          0  HIT:          0  MISS:          0

L2C TOTAL     ACCESS:    8692871  HIT:    8185523  MISS:     507348  HIT %:    94.1636  MISS %:    5.83637   MPKI: 5.07348
L2C LOAD      ACCESS:    7487783  HIT:    7048383  MISS:     439400  HIT %:    94.1318  MISS %:    5.86823   MPKI: 4.394
L2C DATA LOAD MPKI: 2.13132
L2C INSTRUCTION LOAD MPKI: 2.26268
L2C RFO       ACCESS:     384867  HIT:     340076  MISS:      44791  HIT %:     88.362  MISS %:     11.638   MPKI: 0.44791
L2C WRITEBACK ACCESS:     793455  HIT:     783286  MISS:      10169  HIT %:    98.7184  MISS %:    1.28161   MPKI: 0.10169
L2C LOAD TRANSLATION ACCESS:      26766  HIT:      13778  MISS:      12988  HIT %:    51.4758  MISS %:    48.5242   MPKI: 0.12988
L2C PREFETCH  REQUESTED:          0  ISSUED:          0  USEFUL:          0  USELESS:          0
L2C USEFUL LOAD PREFETCHES:          0 PREFETCH ISSUED TO LOWER LEVEL:          0  ACCURACY: -nan
L2C TIMELY PREFETCHES:          0 LATE PREFETCHES: 0 DROPPED PREFETCHES: 0
L2C PREFETCHES SAME FILL-ORIGIN LEVEL: 0 DIFFERENT FILL-ORIGIN LEVEL: 0
L2C AVERAGE MISS LATENCY: 72.6152 cycles
L2C RQ	ACCESS:    7899418	FORWARD:          0	MERGED:          0	TO_CACHE:    7899416
L2C WQ	ACCESS:     793455	FORWARD:          2	MERGED:          0	TO_CACHE:     793455

L2C Instructions Evicting Data 85294
L2C Translations Evicting Data 9337
L2C Data Evicting Data 170209
L2C Instructions Evicting Instructions 137400
L2C Translations Evicting Instructions 2880
L2C Data Evicting Instructions 79261
L2C Instructions Evicting Translations 3574
L2C Translations Evicting Translations 770
L2C Data Evicting Translations 8433
L2C Dense regions hint from L2: 0
PSCL5 TOTAL     ACCESS:      21223  HIT:      21223  MISS:          0  HIT %:        100  MISS %:          0   MPKI: 0
PSCL5 LOAD TRANSLATION ACCESS:      21223  HIT:      21223  MISS:          0  HIT %:        100  MISS %:          0   MPKI: 0
PSCL5 PREFETCH  REQUESTED:          0  ISSUED:          0  USEFUL:          0  USELESS:          0
PSCL5 USEFUL LOAD PREFETCHES:          0 PREFETCH ISSUED TO LOWER LEVEL:          0  ACCURACY: -nan
PSCL5 TIMELY PREFETCHES:          0 LATE PREFETCHES: 0 DROPPED PREFETCHES: 0
PSCL5 PREFETCHES SAME FILL-ORIGIN LEVEL: 0 DIFFERENT FILL-ORIGIN LEVEL: 0

PSCL4 TOTAL     ACCESS:      20060  HIT:      19888  MISS:        172  HIT %:    99.1426  MISS %:   0.857428   MPKI: 0.00172
PSCL4 LOAD TRANSLATION ACCESS:      20060  HIT:      19888  MISS:        172  HIT %:    99.1426  MISS %:   0.857428   MPKI: 0.00172
PSCL4 PREFETCH  REQUESTED:          0  ISSUED:          0  USEFUL:          0  USELESS:          0
PSCL4 USEFUL LOAD PREFETCHES:          0 PREFETCH ISSUED TO LOWER LEVEL:          0  ACCURACY: -nan
PSCL4 TIMELY PREFETCHES:          0 LATE PREFETCHES: 0 DROPPED PREFETCHES: 0
PSCL4 PREFETCHES SAME FILL-ORIGIN LEVEL: 0 DIFFERENT FILL-ORIGIN LEVEL: 0

PSCL3 TOTAL     ACCESS:      20958  HIT:      20785  MISS:        173  HIT %:    99.1745  MISS %:    0.82546   MPKI: 0.00173
PSCL3 LOAD TRANSLATION ACCESS:      20958  HIT:      20785  MISS:        173  HIT %:    99.1745  MISS %:    0.82546   MPKI: 0.00173
PSCL3 PREFETCH  REQUESTED:          0  ISSUED:          0  USEFUL:          0  USELESS:          0
PSCL3 USEFUL LOAD PREFETCHES:          0 PREFETCH ISSUED TO LOWER LEVEL:          0  ACCURACY: -nan
PSCL3 TIMELY PREFETCHES:          0 LATE PREFETCHES: 0 DROPPED PREFETCHES: 0
PSCL3 PREFETCHES SAME FILL-ORIGIN LEVEL: 0 DIFFERENT FILL-ORIGIN LEVEL: 0

PSCL2 TOTAL     ACCESS:      21223  HIT:      15851  MISS:       5372  HIT %:    74.6878  MISS %:    25.3122   MPKI: 0.05372
PSCL2 LOAD TRANSLATION ACCESS:      21223  HIT:      15851  MISS:       5372  HIT %:    74.6878  MISS %:    25.3122   MPKI: 0.05372
PSCL2 PREFETCH  REQUESTED:          0  ISSUED:          0  USEFUL:          0  USELESS:          0
PSCL2 USEFUL LOAD PREFETCHES:          0 PREFETCH ISSUED TO LOWER LEVEL:          0  ACCURACY: -nan
PSCL2 TIMELY PREFETCHES:          0 LATE PREFETCHES: 0 DROPPED PREFETCHES: 0
PSCL2 PREFETCHES SAME FILL-ORIGIN LEVEL: 0 DIFFERENT FILL-ORIGIN LEVEL: 0

LLC TOTAL     ACCESS:     623698  HIT:     480030  MISS:     143668  HIT %:    76.9651  MISS %:    23.0349   MPKI: 1.43668
LLC LOAD      ACCESS:     439400  HIT:     321844  MISS:     117556  HIT %:    73.2462  MISS %:    26.7538   MPKI: 1.17556
LLC RFO       ACCESS:      44791  HIT:      25298  MISS:      19493  HIT %:    56.4801  MISS %:    43.5199   MPKI: 0.19493
LLC WRITEBACK ACCESS:     126519  HIT:     126375  MISS:        144  HIT %:    99.8862  MISS %:   0.113817   MPKI: 0.00144
LLC LOAD TRANSLATION ACCESS:      12988  HIT:       6513  MISS:       6475  HIT %:    50.1463  MISS %:    49.8537   MPKI: 0.06475
LLC PREFETCH  REQUESTED:          0  ISSUED:          0  USEFUL:          0  USELESS:          0
LLC USEFUL LOAD PREFETCHES:          0 PREFETCH ISSUED TO LOWER LEVEL:          0  ACCURACY: -nan
LLC TIMELY PREFETCHES:          0 LATE PREFETCHES: 0 DROPPED PREFETCHES: 0
LLC PREFETCHES SAME FILL-ORIGIN LEVEL: 0 DIFFERENT FILL-ORIGIN LEVEL: 0
LLC AVERAGE MISS LATENCY: 152.456 cycles
LLC RQ	ACCESS:     497179	FORWARD:          0	MERGED:          0	TO_CACHE:     497179
LLC WQ	ACCESS:     126519	FORWARD:          0	MERGED:          0	TO_CACHE:     126519

LLC Dense regions hint to LLC: 0

RAW hits: 786695
Loads Generated: 23609896
Loads sent to L1D: 22823200
Stores Generated: 13122708
Stores sent to L1D: 13122712
Major fault: 0 Minor fault: 6748
Allocated PAGES: 6748

DRAM Statistics
 CHANNEL 0
 RQ ROW_BUFFER_HIT:      28564  ROW_BUFFER_MISS:     114957
 DBUS_CONGESTED:         34
 WQ ROW_BUFFER_HIT:      10061  ROW_BUFFER_MISS:      39519  FULL:          0

 AVG_CONGESTED_CYCLE: 4
 All warmup complete: 2
Channel 0 Bank busy for read cycles: 0
Channel 0 Bank busy for write cycles: 0
Channel 0
Rank 0
0banks busy for read cycles: 420989906
0banks busy for write cycles: 29729
1banks busy for read cycles: 12676753
1banks busy for write cycles: 4862361
2banks busy for read cycles: 1516497
2banks busy for write cycles: 1082747
3banks busy for read cycles: 434457
3banks busy for write cycles: 326861
4banks busy for read cycles: 131231
4banks busy for write cycles: 132172
5banks busy for read cycles: 52682
5banks busy for write cycles: 73458
6banks busy for read cycles: 44380
6banks busy for write cycles: 51777
7banks busy for read cycles: 47397
7banks busy for write cycles: 35165
8banks busy for read cycles: 34062
8banks busy for write cycles: 25248

CPU 0 Branch Prediction Accuracy: 95.2522% MPKI: 8.66933 Average ROB Occupancy at Mispredict: 6.44269
Branch types
NOT_BRANCH: 81740121 81.7401%
BRANCH_DIRECT_JUMP: 1240385 1.24038%
BRANCH_INDIRECT: 6403260 6.40326%
BRANCH_CONDITIONAL: 5810345 5.81034%
BRANCH_DIRECT_CALL: 2010811 2.01081%
BRANCH_INDIRECT_CALL: 392130 0.39213%
BRANCH_RETURN: 2402909 2.40291%
BRANCH_OTHER: 0 0%

DRAM PAGES: 1048576
Allocated PAGES: 6748
