
*** ChampSim Multicore Out-of-Order Simulator ***

Warmup Instructions: 25000000
Simulation Instructions: 100000000
Number of CPUs: 1
LLC sets: 2048
LLC ways: 16
Off-chip DRAM Size: 4096 MB Channels: 1 Width: 64-bit Data Rate: 6400 MT/s
CPU 0 runs ../utility-based-partitioning/server_039.champsimtrace.xz
AAAAA
.xz
../utility-based-partitioning/server_039.champsimtrace.xz 0
ABDUBDIBDIBDIBD
0x30cdd760
CPU 0 runs ../utility-based-partitioning/server_034.champsimtrace.xz
AAAAA
.xz
../utility-based-partitioning/server_034.champsimtrace.xz 1
0x30cdda00
CPU 0 runs ../utility-based-partitioning/server_033.champsimtrace.xz
AAAAA
.xz
../utility-based-partitioning/server_033.champsimtrace.xz 2
0x30cddca0
CPU 0 runs ../utility-based-partitioning/server_032.champsimtrace.xz
AAAAA
.xz
../utility-based-partitioning/server_032.champsimtrace.xz 3
0x30cddf40
CPU 0 Bimodal branch predictor
BTB has LRU replacement policy
ITLB has LRU replacement policy
DTLB has LRU replacement policy
STLB has LRU replacement policy
L1I has LRU replacement policy
L1D has LRU replacement policy
L2C has LRU replacement policy
LLC has LRU replacement policy
Heartbeat CPU 0 instructions: 10000003 cycles: 2745164 heartbeat IPC: 3.64277 cumulative IPC: 3.64277 (Simulation time: 0 hr 0 min 23 sec) 
Heartbeat CPU 0 instructions: 20000002 cycles: 5487347 heartbeat IPC: 3.64673 cumulative IPC: 3.64475 (Simulation time: 0 hr 0 min 48 sec) 

Warmup complete CPU 0 instructions: 25000004 cycles: 6858522 (Simulation time: 0 hr 1 min 5 sec) 

Before Swap:
Trace File 1: 0x30cdddf0
Trace File 2: 0x30cdda00
Gunzip Command 1: xz -dc ../utility-based-partitioning/server_039.champsimtrace.xz
Gunzip Command 2: xz -dc ../utility-based-partitioning/server_034.champsimtrace.xz
0x30cdda00 : 1 curr: 0
0x30cdddf0 : 0
After Swap:
Trace File 1: 0x30cdda00
Trace File 2: 0x30cdddf0
Gunzip Command 1: xz -dc ../utility-based-partitioning/server_034.champsimtrace.xz
Gunzip Command 2: xz -dc ../utility-based-partitioning/server_039.champsimtrace.xz
Successfully read from the swapped trace file.
again: 2
Heartbeat CPU 0 instructions: 30000001 cycles: 27519764 heartbeat IPC: 0.453877 cumulative IPC: 0.241999 (Simulation time: 0 hr 1 min 47 sec) 
Before Swap:
Trace File 1: 0x30cdda00
Trace File 2: 0x30cddf40
Gunzip Command 1: xz -dc ../utility-based-partitioning/server_034.champsimtrace.xz
Gunzip Command 2: xz -dc ../utility-based-partitioning/server_032.champsimtrace.xz
0x30cddf40 : 3 curr: 2
0x30cdda00 : 1
After Swap:
Trace File 1: 0x30cddf40
Trace File 2: 0x30cdda00
Gunzip Command 1: xz -dc ../utility-based-partitioning/server_032.champsimtrace.xz
Gunzip Command 2: xz -dc ../utility-based-partitioning/server_034.champsimtrace.xz
Successfully read from the swapped trace file.
again: 2
Before Swap:
Trace File 1: 0x30cddf40
Trace File 2: 0x30cdda00
Gunzip Command 1: xz -dc ../utility-based-partitioning/server_032.champsimtrace.xz
Gunzip Command 2: xz -dc ../utility-based-partitioning/server_034.champsimtrace.xz
0x30cdda00 : 1 curr: 2
0x30cddf40 : 3
After Swap:
Trace File 1: 0x30cdda00
Trace File 2: 0x30cddf40
Gunzip Command 1: xz -dc ../utility-based-partitioning/server_034.champsimtrace.xz
Gunzip Command 2: xz -dc ../utility-based-partitioning/server_032.champsimtrace.xz
Successfully read from the swapped trace file.
again: 2
Heartbeat CPU 0 instructions: 40000001 cycles: 70192610 heartbeat IPC: 0.234341 cumulative IPC: 0.236839 (Simulation time: 0 hr 3 min 32 sec) 
Before Swap:
Trace File 1: 0x30cdda00
Trace File 2: 0x30cddf40
Gunzip Command 1: xz -dc ../utility-based-partitioning/server_034.champsimtrace.xz
Gunzip Command 2: xz -dc ../utility-based-partitioning/server_032.champsimtrace.xz
0x30cddf40 : 3 curr: 2
0x30cdda00 : 1
After Swap:
Trace File 1: 0x30cddf40
Trace File 2: 0x30cdda00
Gunzip Command 1: xz -dc ../utility-based-partitioning/server_032.champsimtrace.xz
Gunzip Command 2: xz -dc ../utility-based-partitioning/server_034.champsimtrace.xz
Successfully read from the swapped trace file.
again: 1
Before Swap:
Trace File 1: 0x30cddf40
Trace File 2: 0x30cddca0
Gunzip Command 1: xz -dc ../utility-based-partitioning/server_032.champsimtrace.xz
Gunzip Command 2: xz -dc ../utility-based-partitioning/server_033.champsimtrace.xz
0x30cddca0 : 2 curr: 1
0x30cddf40 : 3
After Swap:
Trace File 1: 0x30cddca0
Trace File 2: 0x30cddf40
Gunzip Command 1: xz -dc ../utility-based-partitioning/server_033.champsimtrace.xz
Gunzip Command 2: xz -dc ../utility-based-partitioning/server_032.champsimtrace.xz
Successfully read from the swapped trace file.
again: 0
Heartbeat CPU 0 instructions: 50000001 cycles: 114782609 heartbeat IPC: 0.224266 cumulative IPC: 0.231644 (Simulation time: 0 hr 5 min 17 sec) 
Before Swap:
Trace File 1: 0x30cddca0
Trace File 2: 0x30cdddf0
Gunzip Command 1: xz -dc ../utility-based-partitioning/server_033.champsimtrace.xz
Gunzip Command 2: xz -dc ../utility-based-partitioning/server_039.champsimtrace.xz
0x30cdddf0 : 0 curr: 0
0x30cddca0 : 2
After Swap:
Trace File 1: 0x30cdddf0
Trace File 2: 0x30cddca0
Gunzip Command 1: xz -dc ../utility-based-partitioning/server_039.champsimtrace.xz
Gunzip Command 2: xz -dc ../utility-based-partitioning/server_033.champsimtrace.xz
Successfully read from the swapped trace file.
again: 2
Before Swap:
Trace File 1: 0x30cdddf0
Trace File 2: 0x30cdda00
Gunzip Command 1: xz -dc ../utility-based-partitioning/server_039.champsimtrace.xz
Gunzip Command 2: xz -dc ../utility-based-partitioning/server_034.champsimtrace.xz
0x30cdda00 : 1 curr: 2
0x30cdddf0 : 0
After Swap:
Trace File 1: 0x30cdda00
Trace File 2: 0x30cdddf0
Gunzip Command 1: xz -dc ../utility-based-partitioning/server_034.champsimtrace.xz
Gunzip Command 2: xz -dc ../utility-based-partitioning/server_039.champsimtrace.xz
Successfully read from the swapped trace file.
again: 2
Heartbeat CPU 0 instructions: 60000001 cycles: 157988073 heartbeat IPC: 0.231452 cumulative IPC: 0.231589 (Simulation time: 0 hr 7 min 10 sec) 
Before Swap:
Trace File 1: 0x30cdda00
Trace File 2: 0x30cdddf0
Gunzip Command 1: xz -dc ../utility-based-partitioning/server_034.champsimtrace.xz
Gunzip Command 2: xz -dc ../utility-based-partitioning/server_039.champsimtrace.xz
0x30cdddf0 : 0 curr: 2
0x30cdda00 : 1
After Swap:
Trace File 1: 0x30cdddf0
Trace File 2: 0x30cdda00
Gunzip Command 1: xz -dc ../utility-based-partitioning/server_039.champsimtrace.xz
Gunzip Command 2: xz -dc ../utility-based-partitioning/server_034.champsimtrace.xz
Successfully read from the swapped trace file.
again: 1
Before Swap:
Trace File 1: 0x30cdddf0
Trace File 2: 0x30cddf40
Gunzip Command 1: xz -dc ../utility-based-partitioning/server_039.champsimtrace.xz
Gunzip Command 2: xz -dc ../utility-based-partitioning/server_032.champsimtrace.xz
0x30cddf40 : 3 curr: 1
0x30cdddf0 : 0
After Swap:
Trace File 1: 0x30cddf40
Trace File 2: 0x30cdddf0
Gunzip Command 1: xz -dc ../utility-based-partitioning/server_032.champsimtrace.xz
Gunzip Command 2: xz -dc ../utility-based-partitioning/server_039.champsimtrace.xz
Successfully read from the swapped trace file.
again: 0
Heartbeat CPU 0 instructions: 70000000 cycles: 202525485 heartbeat IPC: 0.22453 cumulative IPC: 0.229983 (Simulation time: 0 hr 9 min 1 sec) 
Before Swap:
Trace File 1: 0x30cddf40
Trace File 2: 0x30cddca0
Gunzip Command 1: xz -dc ../utility-based-partitioning/server_032.champsimtrace.xz
Gunzip Command 2: xz -dc ../utility-based-partitioning/server_033.champsimtrace.xz
0x30cddca0 : 2 curr: 0
0x30cddf40 : 3
After Swap:
Trace File 1: 0x30cddca0
Trace File 2: 0x30cddf40
Gunzip Command 1: xz -dc ../utility-based-partitioning/server_033.champsimtrace.xz
Gunzip Command 2: xz -dc ../utility-based-partitioning/server_032.champsimtrace.xz
Successfully read from the swapped trace file.
again: 1
Before Swap:
Trace File 1: 0x30cddca0
Trace File 2: 0x30cdddf0
Gunzip Command 1: xz -dc ../utility-based-partitioning/server_033.champsimtrace.xz
Gunzip Command 2: xz -dc ../utility-based-partitioning/server_039.champsimtrace.xz
0x30cdddf0 : 0 curr: 1
0x30cddca0 : 2
After Swap:
Trace File 1: 0x30cdddf0
Trace File 2: 0x30cddca0
Gunzip Command 1: xz -dc ../utility-based-partitioning/server_039.champsimtrace.xz
Gunzip Command 2: xz -dc ../utility-based-partitioning/server_033.champsimtrace.xz
Successfully read from the swapped trace file.
again: 1
Heartbeat CPU 0 instructions: 80000000 cycles: 247753713 heartbeat IPC: 0.221101 cumulative IPC: 0.228315 (Simulation time: 0 hr 11 min 13 sec) 
Before Swap:
Trace File 1: 0x30cdddf0
Trace File 2: 0x30cddca0
Gunzip Command 1: xz -dc ../utility-based-partitioning/server_039.champsimtrace.xz
Gunzip Command 2: xz -dc ../utility-based-partitioning/server_033.champsimtrace.xz
0x30cddca0 : 2 curr: 1
0x30cdddf0 : 0
After Swap:
Trace File 1: 0x30cddca0
Trace File 2: 0x30cdddf0
Gunzip Command 1: xz -dc ../utility-based-partitioning/server_033.champsimtrace.xz
Gunzip Command 2: xz -dc ../utility-based-partitioning/server_039.champsimtrace.xz
Successfully read from the swapped trace file.
again: 0
Before Swap:
Trace File 1: 0x30cddca0
Trace File 2: 0x30cddf40
Gunzip Command 1: xz -dc ../utility-based-partitioning/server_033.champsimtrace.xz
Gunzip Command 2: xz -dc ../utility-based-partitioning/server_032.champsimtrace.xz
0x30cddf40 : 3 curr: 0
0x30cddca0 : 2
After Swap:
Trace File 1: 0x30cddf40
Trace File 2: 0x30cddca0
Gunzip Command 1: xz -dc ../utility-based-partitioning/server_032.champsimtrace.xz
Gunzip Command 2: xz -dc ../utility-based-partitioning/server_033.champsimtrace.xz
Successfully read from the swapped trace file.
again: 2
Heartbeat CPU 0 instructions: 90000001 cycles: 291812784 heartbeat IPC: 0.226968 cumulative IPC: 0.228107 (Simulation time: 0 hr 13 min 23 sec) 
Before Swap:
Trace File 1: 0x30cddf40
Trace File 2: 0x30cdda00
Gunzip Command 1: xz -dc ../utility-based-partitioning/server_032.champsimtrace.xz
Gunzip Command 2: xz -dc ../utility-based-partitioning/server_034.champsimtrace.xz
0x30cdda00 : 1 curr: 2
0x30cddf40 : 3
After Swap:
Trace File 1: 0x30cdda00
Trace File 2: 0x30cddf40
Gunzip Command 1: xz -dc ../utility-based-partitioning/server_034.champsimtrace.xz
Gunzip Command 2: xz -dc ../utility-based-partitioning/server_032.champsimtrace.xz
Successfully read from the swapped trace file.
again: 1
Before Swap:
Trace File 1: 0x30cdda00
Trace File 2: 0x30cdddf0
Gunzip Command 1: xz -dc ../utility-based-partitioning/server_034.champsimtrace.xz
Gunzip Command 2: xz -dc ../utility-based-partitioning/server_039.champsimtrace.xz
0x30cdddf0 : 0 curr: 1
0x30cdda00 : 1
After Swap:
Trace File 1: 0x30cdddf0
Trace File 2: 0x30cdda00
Gunzip Command 1: xz -dc ../utility-based-partitioning/server_039.champsimtrace.xz
Gunzip Command 2: xz -dc ../utility-based-partitioning/server_034.champsimtrace.xz
Successfully read from the swapped trace file.
again: 2
Heartbeat CPU 0 instructions: 100000000 cycles: 336024698 heartbeat IPC: 0.226183 cumulative IPC: 0.227848 (Simulation time: 0 hr 15 min 11 sec) 
Before Swap:
Trace File 1: 0x30cdddf0
Trace File 2: 0x30cddf40
Gunzip Command 1: xz -dc ../utility-based-partitioning/server_039.champsimtrace.xz
Gunzip Command 2: xz -dc ../utility-based-partitioning/server_032.champsimtrace.xz
0x30cddf40 : 3 curr: 2
0x30cdddf0 : 0
After Swap:
Trace File 1: 0x30cddf40
Trace File 2: 0x30cdddf0
Gunzip Command 1: xz -dc ../utility-based-partitioning/server_032.champsimtrace.xz
Gunzip Command 2: xz -dc ../utility-based-partitioning/server_039.champsimtrace.xz
Successfully read from the swapped trace file.
again: 0
Before Swap:
Trace File 1: 0x30cddf40
Trace File 2: 0x30cddca0
Gunzip Command 1: xz -dc ../utility-based-partitioning/server_032.champsimtrace.xz
Gunzip Command 2: xz -dc ../utility-based-partitioning/server_033.champsimtrace.xz
0x30cddca0 : 2 curr: 0
0x30cddf40 : 3
After Swap:
Trace File 1: 0x30cddca0
Trace File 2: 0x30cddf40
Gunzip Command 1: xz -dc ../utility-based-partitioning/server_033.champsimtrace.xz
Gunzip Command 2: xz -dc ../utility-based-partitioning/server_032.champsimtrace.xz
Successfully read from the swapped trace file.
again: 2
Heartbeat CPU 0 instructions: 110000000 cycles: 379467650 heartbeat IPC: 0.230187 cumulative IPC: 0.228121 (Simulation time: 0 hr 17 min 11 sec) 
Before Swap:
Trace File 1: 0x30cddca0
Trace File 2: 0x30cdddf0
Gunzip Command 1: xz -dc ../utility-based-partitioning/server_033.champsimtrace.xz
Gunzip Command 2: xz -dc ../utility-based-partitioning/server_039.champsimtrace.xz
0x30cdddf0 : 0 curr: 2
0x30cddca0 : 2
After Swap:
Trace File 1: 0x30cdddf0
Trace File 2: 0x30cddca0
Gunzip Command 1: xz -dc ../utility-based-partitioning/server_039.champsimtrace.xz
Gunzip Command 2: xz -dc ../utility-based-partitioning/server_033.champsimtrace.xz
Successfully read from the swapped trace file.
again: 2
Before Swap:
Trace File 1: 0x30cdddf0
Trace File 2: 0x30cddca0
Gunzip Command 1: xz -dc ../utility-based-partitioning/server_039.champsimtrace.xz
Gunzip Command 2: xz -dc ../utility-based-partitioning/server_033.champsimtrace.xz
0x30cddca0 : 2 curr: 2
0x30cdddf0 : 0
After Swap:
Trace File 1: 0x30cddca0
Trace File 2: 0x30cdddf0
Gunzip Command 1: xz -dc ../utility-based-partitioning/server_033.champsimtrace.xz
Gunzip Command 2: xz -dc ../utility-based-partitioning/server_039.champsimtrace.xz
Successfully read from the swapped trace file.
again: 1
Heartbeat CPU 0 instructions: 120000000 cycles: 423031785 heartbeat IPC: 0.229547 cumulative IPC: 0.22827 (Simulation time: 0 hr 18 min 47 sec) 
Before Swap:
Trace File 1: 0x30cddca0
Trace File 2: 0x30cdda00
Gunzip Command 1: xz -dc ../utility-based-partitioning/server_033.champsimtrace.xz
Gunzip Command 2: xz -dc ../utility-based-partitioning/server_034.champsimtrace.xz
0x30cdda00 : 1 curr: 1
0x30cddca0 : 2
After Swap:
Trace File 1: 0x30cdda00
Trace File 2: 0x30cddca0
Gunzip Command 1: xz -dc ../utility-based-partitioning/server_034.champsimtrace.xz
Gunzip Command 2: xz -dc ../utility-based-partitioning/server_033.champsimtrace.xz
Successfully read from the swapped trace file.
again: 1
Finished CPU 0 instructions: 100000001 cycles: 437630483 cumulative IPC: 0.228503 (Simulation time: 0 hr 19 min 42 sec) 

ChampSim completed all CPUs

Region of Interest Statistics
MPKI for 0x30cdda00 trace file: 118.709
MPKI for 0x30cddca0 trace file: 103.052
MPKI for 0x30cdddf0 trace file: 99.2532
MPKI for 0x30cddf40 trace file: 103.803

CPU 0 cumulative IPC: 0.228503 instructions: 100000001 cycles: 437630483
ITLB TOTAL     ACCESS:   18023401  HIT:   16948002  MISS:    1075399  HIT %:    94.0333  MISS %:    5.96668   MPKI: 10.754
ITLB LOAD TRANSLATION ACCESS:   18023401  HIT:   16948002  MISS:    1075399  HIT %:    94.0333  MISS %:    5.96668   MPKI: 10.754
ITLB PREFETCH  REQUESTED:          0  ISSUED:          0  USEFUL:          0  USELESS:          0
ITLB USEFUL LOAD PREFETCHES:          0 PREFETCH ISSUED TO LOWER LEVEL:          0  ACCURACY: -nan
ITLB TIMELY PREFETCHES:          0 LATE PREFETCHES: 0 DROPPED PREFETCHES: 0
ITLB PREFETCHES SAME FILL-ORIGIN LEVEL: 0 DIFFERENT FILL-ORIGIN LEVEL: 0
ITLB AVERAGE MISS LATENCY: 9.16288 cycles
ITLB RQ	ACCESS:   21278499	FORWARD:          0	MERGED:    3048629	TO_CACHE:   18229870

DTLB TOTAL     ACCESS:   22155486  HIT:   21351280  MISS:     804206  HIT %:    96.3702  MISS %:    3.62983   MPKI: 8.04206
DTLB LOAD TRANSLATION ACCESS:   22155486  HIT:   21351280  MISS:     804206  HIT %:    96.3702  MISS %:    3.62983   MPKI: 8.04206
DTLB PREFETCH  REQUESTED:          0  ISSUED:          0  USEFUL:          0  USELESS:          0
DTLB USEFUL LOAD PREFETCHES:          0 PREFETCH ISSUED TO LOWER LEVEL:          0  ACCURACY: -nan
DTLB TIMELY PREFETCHES:          0 LATE PREFETCHES: 0 DROPPED PREFETCHES: 0
DTLB PREFETCHES SAME FILL-ORIGIN LEVEL: 0 DIFFERENT FILL-ORIGIN LEVEL: 0
DTLB AVERAGE MISS LATENCY: 9.9617 cycles
DTLB RQ	ACCESS:   29896375	FORWARD:          0	MERGED:    7713752	TO_CACHE:   22182623

STLB TOTAL     ACCESS:    1879605  HIT:    1869918  MISS:       9687  HIT %:    99.4846  MISS %:   0.515374   MPKI: 0.09687
STLB LOAD TRANSLATION ACCESS:    1879605  HIT:    1869918  MISS:       9687  HIT %:    99.4846  MISS %:   0.515374   MPKI: 0.09687
STLB PREFETCH  REQUESTED:          0  ISSUED:          0  USEFUL:          0  USELESS:          0
STLB USEFUL LOAD PREFETCHES:          0 PREFETCH ISSUED TO LOWER LEVEL:          0  ACCURACY: -nan
STLB TIMELY PREFETCHES:          0 LATE PREFETCHES: 0 DROPPED PREFETCHES: 0
STLB PREFETCHES SAME FILL-ORIGIN LEVEL: 0 DIFFERENT FILL-ORIGIN LEVEL: 0
STLB AVERAGE MISS LATENCY: 96.219 cycles
STLB RQ	ACCESS:    1879605	FORWARD:          0	MERGED:          0	TO_CACHE:    1879605

STLB Hit, L1D data hit: 0
STLB Hit, L2C data hit: 0
STLB Hit, LLC data hit: 0
STLB Hit, LLC data miss: 0
STLB STLB hints to L2: 0
L1D TOTAL     ACCESS:   29564856  HIT:   28383801  MISS:    1181055  HIT %:    96.0052  MISS %:    3.99479   MPKI: 11.8105
L1D LOAD      ACCESS:   16704282  HIT:   15763566  MISS:     940716  HIT %:    94.3684  MISS %:    5.63159   MPKI: 9.40716
L1D RFO       ACCESS:   12860574  HIT:   12620235  MISS:     240339  HIT %:    98.1312  MISS %:     1.8688   MPKI: 2.40339
L1D PREFETCH  REQUESTED:          0  ISSUED:          0  USEFUL:          0  USELESS:          0
L1D USEFUL LOAD PREFETCHES:          0 PREFETCH ISSUED TO LOWER LEVEL:          0  ACCURACY: -nan
L1D TIMELY PREFETCHES:          0 LATE PREFETCHES: 0 DROPPED PREFETCHES: 0
L1D PREFETCHES SAME FILL-ORIGIN LEVEL: 0 DIFFERENT FILL-ORIGIN LEVEL: 0
L1D AVERAGE MISS LATENCY: 28.0625 cycles
L1D RQ	ACCESS:   22891816	FORWARD:          0	MERGED:    6030111	TO_CACHE:   16733146
L1D WQ	ACCESS:   13240662	FORWARD:     128559	MERGED:      77433	TO_CACHE:   13163229

L1D UNIQUE REGIONS ACCESSED: 0
L1D REGIONS CONFLICTS: 0
L1D Cross Page Prefetch Requests: 0
L1D Same Page Prefetch Requests: 0
L1D ROI Sum of L1D PQ occupancy: 0
L1D PREFETCHES PUSHED FROM L2C: 0
L1I TOTAL     ACCESS:   20596314  HIT:   14025763  MISS:    6570551  HIT %:    68.0984  MISS %:    31.9016   MPKI: 65.7055
L1I LOAD      ACCESS:   20596314  HIT:   14025763  MISS:    6570551  HIT %:    68.0984  MISS %:    31.9016   MPKI: 65.7055
L1I PREFETCH  REQUESTED:          0  ISSUED:          0  USEFUL:          0  USELESS:          0
L1I USEFUL LOAD PREFETCHES:          0 PREFETCH ISSUED TO LOWER LEVEL:          0  ACCURACY: -nan
L1I TIMELY PREFETCHES:          0 LATE PREFETCHES: 0 DROPPED PREFETCHES: 0
L1I PREFETCHES SAME FILL-ORIGIN LEVEL: 0 DIFFERENT FILL-ORIGIN LEVEL: 0
L1I AVERAGE MISS LATENCY: 15.0018 cycles
L1I RQ	ACCESS:   28379850	FORWARD:          0	MERGED:    7101351	TO_CACHE:   21278499

BTB TOTAL     ACCESS:   14718427  HIT:    4522200  MISS:   10196227  HIT %:    30.7248  MISS %:    69.2752   MPKI: 101.962
BTB BRANCH_DIRECT_JUMP	ACCESS:    1211896  HIT:     406016  MISS:     805880
BTB BRANCH_INDIRECT	ACCESS:    6355574  HIT:    1987850  MISS:    4367724
BTB BRANCH_CONDITIONAL	ACCESS:    2370136  HIT:    1212179  MISS:    1157957
BTB BRANCH_DIRECT_CALL	ACCESS:    2003712  HIT:     438461  MISS:    1565251
BTB BRANCH_INDIRECT_CALL	ACCESS:     386695  HIT:      69538  MISS:     317157
BTB BRANCH_RETURN	ACCESS:    2390414  HIT:     408156  MISS:    1982258
BTB BRANCH_OTHER ACCESS:          0  HIT:          0  MISS:          0

L2C TOTAL     ACCESS:    8285945  HIT:    7920514  MISS:     365431  HIT %:    95.5897  MISS %:    4.41025   MPKI: 3.65431
L2C LOAD      ACCESS:    7511264  HIT:    7193474  MISS:     317790  HIT %:    95.7692  MISS %:    4.23085   MPKI: 3.1779
L2C DATA LOAD MPKI: 1.59588
L2C INSTRUCTION LOAD MPKI: 1.58202
L2C RFO       ACCESS:     240339  HIT:     204082  MISS:      36257  HIT %:    84.9142  MISS %:    15.0858   MPKI: 0.36257
L2C WRITEBACK ACCESS:     523279  HIT:     516808  MISS:       6471  HIT %:    98.7634  MISS %:    1.23663   MPKI: 0.06471
L2C LOAD TRANSLATION ACCESS:      11063  HIT:       6150  MISS:       4913  HIT %:    55.5907  MISS %:    44.4093   MPKI: 0.04913
L2C PREFETCH  REQUESTED:          0  ISSUED:          0  USEFUL:          0  USELESS:          0
L2C USEFUL LOAD PREFETCHES:          0 PREFETCH ISSUED TO LOWER LEVEL:          0  ACCURACY: -nan
L2C TIMELY PREFETCHES:          0 LATE PREFETCHES: 0 DROPPED PREFETCHES: 0
L2C PREFETCHES SAME FILL-ORIGIN LEVEL: 0 DIFFERENT FILL-ORIGIN LEVEL: 0
L2C AVERAGE MISS LATENCY: 60.0297 cycles
L2C RQ	ACCESS:    7762667	FORWARD:          0	MERGED:          0	TO_CACHE:    7762665
L2C WQ	ACCESS:     523279	FORWARD:          2	MERGED:          0	TO_CACHE:     523279

L2C Instructions Evicting Data 59175
L2C Translations Evicting Data 3685
L2C Data Evicting Data 132234
L2C Instructions Evicting Instructions 96018
L2C Translations Evicting Instructions 845
L2C Data Evicting Instructions 56727
L2C Instructions Evicting Translations 939
L2C Translations Evicting Translations 136
L2C Data Evicting Translations 3875
L2C Dense regions hint from L2: 0
PSCL5 TOTAL     ACCESS:       9687  HIT:       9687  MISS:          0  HIT %:        100  MISS %:          0   MPKI: 0
PSCL5 LOAD TRANSLATION ACCESS:       9687  HIT:       9687  MISS:          0  HIT %:        100  MISS %:          0   MPKI: 0
PSCL5 PREFETCH  REQUESTED:          0  ISSUED:          0  USEFUL:          0  USELESS:          0
PSCL5 USEFUL LOAD PREFETCHES:          0 PREFETCH ISSUED TO LOWER LEVEL:          0  ACCURACY: -nan
PSCL5 TIMELY PREFETCHES:          0 LATE PREFETCHES: 0 DROPPED PREFETCHES: 0
PSCL5 PREFETCHES SAME FILL-ORIGIN LEVEL: 0 DIFFERENT FILL-ORIGIN LEVEL: 0

PSCL4 TOTAL     ACCESS:       9214  HIT:       9121  MISS:         93  HIT %:    98.9907  MISS %:    1.00933   MPKI: 0.00093
PSCL4 LOAD TRANSLATION ACCESS:       9214  HIT:       9121  MISS:         93  HIT %:    98.9907  MISS %:    1.00933   MPKI: 0.00093
PSCL4 PREFETCH  REQUESTED:          0  ISSUED:          0  USEFUL:          0  USELESS:          0
PSCL4 USEFUL LOAD PREFETCHES:          0 PREFETCH ISSUED TO LOWER LEVEL:          0  ACCURACY: -nan
PSCL4 TIMELY PREFETCHES:          0 LATE PREFETCHES: 0 DROPPED PREFETCHES: 0
PSCL4 PREFETCHES SAME FILL-ORIGIN LEVEL: 0 DIFFERENT FILL-ORIGIN LEVEL: 0

PSCL3 TOTAL     ACCESS:       9461  HIT:       9367  MISS:         94  HIT %:    99.0064  MISS %:   0.993552   MPKI: 0.00094
PSCL3 LOAD TRANSLATION ACCESS:       9461  HIT:       9367  MISS:         94  HIT %:    99.0064  MISS %:   0.993552   MPKI: 0.00094
PSCL3 PREFETCH  REQUESTED:          0  ISSUED:          0  USEFUL:          0  USELESS:          0
PSCL3 USEFUL LOAD PREFETCHES:          0 PREFETCH ISSUED TO LOWER LEVEL:          0  ACCURACY: -nan
PSCL3 TIMELY PREFETCHES:          0 LATE PREFETCHES: 0 DROPPED PREFETCHES: 0
PSCL3 PREFETCHES SAME FILL-ORIGIN LEVEL: 0 DIFFERENT FILL-ORIGIN LEVEL: 0

PSCL2 TOTAL     ACCESS:       9687  HIT:       8418  MISS:       1269  HIT %:       86.9  MISS %:       13.1   MPKI: 0.01269
PSCL2 LOAD TRANSLATION ACCESS:       9687  HIT:       8418  MISS:       1269  HIT %:       86.9  MISS %:       13.1   MPKI: 0.01269
PSCL2 PREFETCH  REQUESTED:          0  ISSUED:          0  USEFUL:          0  USELESS:          0
PSCL2 USEFUL LOAD PREFETCHES:          0 PREFETCH ISSUED TO LOWER LEVEL:          0  ACCURACY: -nan
PSCL2 TIMELY PREFETCHES:          0 LATE PREFETCHES: 0 DROPPED PREFETCHES: 0
PSCL2 PREFETCHES SAME FILL-ORIGIN LEVEL: 0 DIFFERENT FILL-ORIGIN LEVEL: 0

LLC TOTAL     ACCESS:     458395  HIT:     382781  MISS:      75614  HIT %:    83.5046  MISS %:    16.4954   MPKI: 0.75614
LLC LOAD      ACCESS:     317790  HIT:     255396  MISS:      62394  HIT %:    80.3663  MISS %:    19.6337   MPKI: 0.62394
LLC RFO       ACCESS:      36257  HIT:      24707  MISS:      11550  HIT %:    68.1441  MISS %:    31.8559   MPKI: 0.1155
LLC WRITEBACK ACCESS:      99435  HIT:      99369  MISS:         66  HIT %:    99.9336  MISS %:   0.066375   MPKI: 0.00066
LLC LOAD TRANSLATION ACCESS:       4913  HIT:       3309  MISS:       1604  HIT %:    67.3519  MISS %:    32.6481   MPKI: 0.01604
LLC PREFETCH  REQUESTED:          0  ISSUED:          0  USEFUL:          0  USELESS:          0
LLC USEFUL LOAD PREFETCHES:          0 PREFETCH ISSUED TO LOWER LEVEL:          0  ACCURACY: -nan
LLC TIMELY PREFETCHES:          0 LATE PREFETCHES: 0 DROPPED PREFETCHES: 0
LLC PREFETCHES SAME FILL-ORIGIN LEVEL: 0 DIFFERENT FILL-ORIGIN LEVEL: 0
LLC AVERAGE MISS LATENCY: 147.486 cycles
LLC RQ	ACCESS:     358960	FORWARD:          0	MERGED:          0	TO_CACHE:     358960
LLC WQ	ACCESS:      99435	FORWARD:          0	MERGED:          0	TO_CACHE:      99435

LLC Dense regions hint to LLC: 0

RAW hits: 799644
Loads Generated: 23691460
Loads sent to L1D: 22891816
Stores Generated: 13240655
Stores sent to L1D: 13240662
Major fault: 0 Minor fault: 3681
Allocated PAGES: 3681

DRAM Statistics
 CHANNEL 0
 RQ ROW_BUFFER_HIT:      18499  ROW_BUFFER_MISS:      57048
 DBUS_CONGESTED:          6
 WQ ROW_BUFFER_HIT:       2973  ROW_BUFFER_MISS:      15868  FULL:          0

 AVG_CONGESTED_CYCLE: 4
 All warmup complete: 2
Channel 0 Bank busy for read cycles: 0
Channel 0 Bank busy for write cycles: 0
Channel 0
Rank 0
0banks busy for read cycles: 427536637
0banks busy for write cycles: 12778
1banks busy for read cycles: 6270409
1banks busy for write cycles: 2020554
2banks busy for read cycles: 821752
2banks busy for write cycles: 367903
3banks busy for read cycles: 278666
3banks busy for write cycles: 99029
4banks busy for read cycles: 64372
4banks busy for write cycles: 32441
5banks busy for read cycles: 21695
5banks busy for write cycles: 19090
6banks busy for read cycles: 18970
6banks busy for write cycles: 14748
7banks busy for read cycles: 23014
7banks busy for write cycles: 9731
8banks busy for read cycles: 11427
8banks busy for write cycles: 7268

CPU 0 Branch Prediction Accuracy: 95.8801% MPKI: 7.32637 Average ROB Occupancy at Mispredict: 5.84758
Branch types
NOT_BRANCH: 82216849 82.2168%
BRANCH_DIRECT_JUMP: 1211896 1.2119%
BRANCH_INDIRECT: 6355574 6.35557%
BRANCH_CONDITIONAL: 5434788 5.43479%
BRANCH_DIRECT_CALL: 2003712 2.00371%
BRANCH_INDIRECT_CALL: 386695 0.386695%
BRANCH_RETURN: 2390414 2.39041%
BRANCH_OTHER: 0 0%

DRAM PAGES: 1048576
Allocated PAGES: 3681
