
*** ChampSim Multicore Out-of-Order Simulator ***

Warmup Instructions: 25000000
Simulation Instructions: 100000000
Number of CPUs: 1
LLC sets: 2048
LLC ways: 16
Off-chip DRAM Size: 4096 MB Channels: 1 Width: 64-bit Data Rate: 6400 MT/s
CPU 0 runs ../utility-based-partitioning/server_038.champsimtrace.xz
AAAAA
.xz
../utility-based-partitioning/server_038.champsimtrace.xz 0
ABDUBDIBDIBDIBD
0xde48760
CPU 0 runs ../utility-based-partitioning/server_039.champsimtrace.xz
AAAAA
.xz
../utility-based-partitioning/server_039.champsimtrace.xz 1
0xde48a00
CPU 0 runs ../utility-based-partitioning/server_034.champsimtrace.xz
AAAAA
.xz
../utility-based-partitioning/server_034.champsimtrace.xz 2
0xde48ca0
CPU 0 runs ../utility-based-partitioning/server_033.champsimtrace.xz
AAAAA
.xz
../utility-based-partitioning/server_033.champsimtrace.xz 3
0xde48f40
CPU 0 Bimodal branch predictor
BTB has LRU replacement policy
ITLB has LRU replacement policy
DTLB has LRU replacement policy
STLB has LRU replacement policy
L1I has LRU replacement policy
L1D has LRU replacement policy
L2C has LRU replacement policy
LLC has LRU replacement policy
Heartbeat CPU 0 instructions: 10000000 cycles: 2776088 heartbeat IPC: 3.60219 cumulative IPC: 3.60219 (Simulation time: 0 hr 0 min 22 sec) 
Heartbeat CPU 0 instructions: 20000002 cycles: 5551274 heartbeat IPC: 3.60336 cumulative IPC: 3.60278 (Simulation time: 0 hr 0 min 48 sec) 

Warmup complete CPU 0 instructions: 25000001 cycles: 6938438 (Simulation time: 0 hr 1 min 7 sec) 

Before Swap:
Trace File 1: 0xde48df0
Trace File 2: 0xde48a00
Gunzip Command 1: xz -dc ../utility-based-partitioning/server_038.champsimtrace.xz
Gunzip Command 2: xz -dc ../utility-based-partitioning/server_039.champsimtrace.xz
0xde48a00 : 1 curr: 0
0xde48df0 : 0
After Swap:
Trace File 1: 0xde48a00
Trace File 2: 0xde48df0
Gunzip Command 1: xz -dc ../utility-based-partitioning/server_039.champsimtrace.xz
Gunzip Command 2: xz -dc ../utility-based-partitioning/server_038.champsimtrace.xz
Successfully read from the swapped trace file.
again: 0
Heartbeat CPU 0 instructions: 30000000 cycles: 24095408 heartbeat IPC: 0.539254 cumulative IPC: 0.291427 (Simulation time: 0 hr 1 min 58 sec) 
Before Swap:
Trace File 1: 0xde48a00
Trace File 2: 0xde48df0
Gunzip Command 1: xz -dc ../utility-based-partitioning/server_039.champsimtrace.xz
Gunzip Command 2: xz -dc ../utility-based-partitioning/server_038.champsimtrace.xz
0xde48df0 : 0 curr: 0
0xde48a00 : 1
After Swap:
Trace File 1: 0xde48df0
Trace File 2: 0xde48a00
Gunzip Command 1: xz -dc ../utility-based-partitioning/server_038.champsimtrace.xz
Gunzip Command 2: xz -dc ../utility-based-partitioning/server_039.champsimtrace.xz
Successfully read from the swapped trace file.
again: 1
Before Swap:
Trace File 1: 0xde48df0
Trace File 2: 0xde48ca0
Gunzip Command 1: xz -dc ../utility-based-partitioning/server_038.champsimtrace.xz
Gunzip Command 2: xz -dc ../utility-based-partitioning/server_034.champsimtrace.xz
0xde48ca0 : 2 curr: 1
0xde48df0 : 0
After Swap:
Trace File 1: 0xde48ca0
Trace File 2: 0xde48df0
Gunzip Command 1: xz -dc ../utility-based-partitioning/server_034.champsimtrace.xz
Gunzip Command 2: xz -dc ../utility-based-partitioning/server_038.champsimtrace.xz
Successfully read from the swapped trace file.
again: 0
Heartbeat CPU 0 instructions: 40000001 cycles: 67563679 heartbeat IPC: 0.230053 cumulative IPC: 0.247422 (Simulation time: 0 hr 3 min 44 sec) 
Before Swap:
Trace File 1: 0xde48ca0
Trace File 2: 0xde48a00
Gunzip Command 1: xz -dc ../utility-based-partitioning/server_034.champsimtrace.xz
Gunzip Command 2: xz -dc ../utility-based-partitioning/server_039.champsimtrace.xz
0xde48a00 : 1 curr: 0
0xde48ca0 : 2
After Swap:
Trace File 1: 0xde48a00
Trace File 2: 0xde48ca0
Gunzip Command 1: xz -dc ../utility-based-partitioning/server_039.champsimtrace.xz
Gunzip Command 2: xz -dc ../utility-based-partitioning/server_034.champsimtrace.xz
Successfully read from the swapped trace file.
again: 0
Before Swap:
Trace File 1: 0xde48a00
Trace File 2: 0xde48ca0
Gunzip Command 1: xz -dc ../utility-based-partitioning/server_039.champsimtrace.xz
Gunzip Command 2: xz -dc ../utility-based-partitioning/server_034.champsimtrace.xz
0xde48ca0 : 2 curr: 0
0xde48a00 : 1
After Swap:
Trace File 1: 0xde48ca0
Trace File 2: 0xde48a00
Gunzip Command 1: xz -dc ../utility-based-partitioning/server_034.champsimtrace.xz
Gunzip Command 2: xz -dc ../utility-based-partitioning/server_039.champsimtrace.xz
Successfully read from the swapped trace file.
again: 2
Heartbeat CPU 0 instructions: 50000002 cycles: 110889450 heartbeat IPC: 0.23081 cumulative IPC: 0.240498 (Simulation time: 0 hr 5 min 24 sec) 
Before Swap:
Trace File 1: 0xde48ca0
Trace File 2: 0xde48f40
Gunzip Command 1: xz -dc ../utility-based-partitioning/server_034.champsimtrace.xz
Gunzip Command 2: xz -dc ../utility-based-partitioning/server_033.champsimtrace.xz
0xde48f40 : 3 curr: 2
0xde48ca0 : 2
After Swap:
Trace File 1: 0xde48f40
Trace File 2: 0xde48ca0
Gunzip Command 1: xz -dc ../utility-based-partitioning/server_033.champsimtrace.xz
Gunzip Command 2: xz -dc ../utility-based-partitioning/server_034.champsimtrace.xz
Successfully read from the swapped trace file.
again: 0
Before Swap:
Trace File 1: 0xde48f40
Trace File 2: 0xde48a00
Gunzip Command 1: xz -dc ../utility-based-partitioning/server_033.champsimtrace.xz
Gunzip Command 2: xz -dc ../utility-based-partitioning/server_039.champsimtrace.xz
0xde48a00 : 1 curr: 0
0xde48f40 : 3
After Swap:
Trace File 1: 0xde48a00
Trace File 2: 0xde48f40
Gunzip Command 1: xz -dc ../utility-based-partitioning/server_039.champsimtrace.xz
Gunzip Command 2: xz -dc ../utility-based-partitioning/server_033.champsimtrace.xz
Successfully read from the swapped trace file.
again: 0
Heartbeat CPU 0 instructions: 60000003 cycles: 156280974 heartbeat IPC: 0.220305 cumulative IPC: 0.234361 (Simulation time: 0 hr 7 min 28 sec) 
Before Swap:
Trace File 1: 0xde48a00
Trace File 2: 0xde48f40
Gunzip Command 1: xz -dc ../utility-based-partitioning/server_039.champsimtrace.xz
Gunzip Command 2: xz -dc ../utility-based-partitioning/server_033.champsimtrace.xz
0xde48f40 : 3 curr: 0
0xde48a00 : 1
After Swap:
Trace File 1: 0xde48f40
Trace File 2: 0xde48a00
Gunzip Command 1: xz -dc ../utility-based-partitioning/server_033.champsimtrace.xz
Gunzip Command 2: xz -dc ../utility-based-partitioning/server_039.champsimtrace.xz
Successfully read from the swapped trace file.
again: 2
Before Swap:
Trace File 1: 0xde48f40
Trace File 2: 0xde48ca0
Gunzip Command 1: xz -dc ../utility-based-partitioning/server_033.champsimtrace.xz
Gunzip Command 2: xz -dc ../utility-based-partitioning/server_034.champsimtrace.xz
0xde48ca0 : 2 curr: 2
0xde48f40 : 3
After Swap:
Trace File 1: 0xde48ca0
Trace File 2: 0xde48f40
Gunzip Command 1: xz -dc ../utility-based-partitioning/server_034.champsimtrace.xz
Gunzip Command 2: xz -dc ../utility-based-partitioning/server_033.champsimtrace.xz
Successfully read from the swapped trace file.
again: 0
Heartbeat CPU 0 instructions: 70000003 cycles: 196829669 heartbeat IPC: 0.246617 cumulative IPC: 0.236978 (Simulation time: 0 hr 9 min 36 sec) 
Before Swap:
Trace File 1: 0xde48ca0
Trace File 2: 0xde48a00
Gunzip Command 1: xz -dc ../utility-based-partitioning/server_034.champsimtrace.xz
Gunzip Command 2: xz -dc ../utility-based-partitioning/server_039.champsimtrace.xz
0xde48a00 : 1 curr: 0
0xde48ca0 : 2
After Swap:
Trace File 1: 0xde48a00
Trace File 2: 0xde48ca0
Gunzip Command 1: xz -dc ../utility-based-partitioning/server_039.champsimtrace.xz
Gunzip Command 2: xz -dc ../utility-based-partitioning/server_034.champsimtrace.xz
Successfully read from the swapped trace file.
again: 0
Before Swap:
Trace File 1: 0xde48a00
Trace File 2: 0xde48ca0
Gunzip Command 1: xz -dc ../utility-based-partitioning/server_039.champsimtrace.xz
Gunzip Command 2: xz -dc ../utility-based-partitioning/server_034.champsimtrace.xz
0xde48ca0 : 2 curr: 0
0xde48a00 : 1
After Swap:
Trace File 1: 0xde48ca0
Trace File 2: 0xde48a00
Gunzip Command 1: xz -dc ../utility-based-partitioning/server_034.champsimtrace.xz
Gunzip Command 2: xz -dc ../utility-based-partitioning/server_039.champsimtrace.xz
Successfully read from the swapped trace file.
again: 2
Heartbeat CPU 0 instructions: 80000003 cycles: 238972468 heartbeat IPC: 0.237288 cumulative IPC: 0.237034 (Simulation time: 0 hr 11 min 35 sec) 
Before Swap:
Trace File 1: 0xde48ca0
Trace File 2: 0xde48f40
Gunzip Command 1: xz -dc ../utility-based-partitioning/server_034.champsimtrace.xz
Gunzip Command 2: xz -dc ../utility-based-partitioning/server_033.champsimtrace.xz
0xde48f40 : 3 curr: 2
0xde48ca0 : 2
After Swap:
Trace File 1: 0xde48f40
Trace File 2: 0xde48ca0
Gunzip Command 1: xz -dc ../utility-based-partitioning/server_033.champsimtrace.xz
Gunzip Command 2: xz -dc ../utility-based-partitioning/server_034.champsimtrace.xz
Successfully read from the swapped trace file.
again: 2
Before Swap:
Trace File 1: 0xde48f40
Trace File 2: 0xde48ca0
Gunzip Command 1: xz -dc ../utility-based-partitioning/server_033.champsimtrace.xz
Gunzip Command 2: xz -dc ../utility-based-partitioning/server_034.champsimtrace.xz
0xde48ca0 : 2 curr: 2
0xde48f40 : 3
After Swap:
Trace File 1: 0xde48ca0
Trace File 2: 0xde48f40
Gunzip Command 1: xz -dc ../utility-based-partitioning/server_034.champsimtrace.xz
Gunzip Command 2: xz -dc ../utility-based-partitioning/server_033.champsimtrace.xz
Successfully read from the swapped trace file.
again: 1
Heartbeat CPU 0 instructions: 90000000 cycles: 280044942 heartbeat IPC: 0.243472 cumulative IPC: 0.238002 (Simulation time: 0 hr 13 min 42 sec) 
Before Swap:
Trace File 1: 0xde48ca0
Trace File 2: 0xde48df0
Gunzip Command 1: xz -dc ../utility-based-partitioning/server_034.champsimtrace.xz
Gunzip Command 2: xz -dc ../utility-based-partitioning/server_038.champsimtrace.xz
0xde48df0 : 0 curr: 1
0xde48ca0 : 2
After Swap:
Trace File 1: 0xde48df0
Trace File 2: 0xde48ca0
Gunzip Command 1: xz -dc ../utility-based-partitioning/server_038.champsimtrace.xz
Gunzip Command 2: xz -dc ../utility-based-partitioning/server_034.champsimtrace.xz
Successfully read from the swapped trace file.
again: 0
Before Swap:
Trace File 1: 0xde48df0
Trace File 2: 0xde48a00
Gunzip Command 1: xz -dc ../utility-based-partitioning/server_038.champsimtrace.xz
Gunzip Command 2: xz -dc ../utility-based-partitioning/server_039.champsimtrace.xz
0xde48a00 : 1 curr: 0
0xde48df0 : 0
After Swap:
Trace File 1: 0xde48a00
Trace File 2: 0xde48df0
Gunzip Command 1: xz -dc ../utility-based-partitioning/server_039.champsimtrace.xz
Gunzip Command 2: xz -dc ../utility-based-partitioning/server_038.champsimtrace.xz
Successfully read from the swapped trace file.
again: 0
Heartbeat CPU 0 instructions: 100000000 cycles: 326811156 heartbeat IPC: 0.21383 cumulative IPC: 0.234468 (Simulation time: 0 hr 15 min 22 sec) 
Before Swap:
Trace File 1: 0xde48a00
Trace File 2: 0xde48df0
Gunzip Command 1: xz -dc ../utility-based-partitioning/server_039.champsimtrace.xz
Gunzip Command 2: xz -dc ../utility-based-partitioning/server_038.champsimtrace.xz
0xde48df0 : 0 curr: 0
0xde48a00 : 1
After Swap:
Trace File 1: 0xde48df0
Trace File 2: 0xde48a00
Gunzip Command 1: xz -dc ../utility-based-partitioning/server_038.champsimtrace.xz
Gunzip Command 2: xz -dc ../utility-based-partitioning/server_039.champsimtrace.xz
Successfully read from the swapped trace file.
again: 1
Before Swap:
Trace File 1: 0xde48df0
Trace File 2: 0xde48ca0
Gunzip Command 1: xz -dc ../utility-based-partitioning/server_038.champsimtrace.xz
Gunzip Command 2: xz -dc ../utility-based-partitioning/server_034.champsimtrace.xz
0xde48ca0 : 2 curr: 1
0xde48df0 : 0
After Swap:
Trace File 1: 0xde48ca0
Trace File 2: 0xde48df0
Gunzip Command 1: xz -dc ../utility-based-partitioning/server_034.champsimtrace.xz
Gunzip Command 2: xz -dc ../utility-based-partitioning/server_038.champsimtrace.xz
Successfully read from the swapped trace file.
again: 0
Heartbeat CPU 0 instructions: 110000000 cycles: 369833545 heartbeat IPC: 0.232437 cumulative IPC: 0.234227 (Simulation time: 0 hr 17 min 32 sec) 
Before Swap:
Trace File 1: 0xde48ca0
Trace File 2: 0xde48a00
Gunzip Command 1: xz -dc ../utility-based-partitioning/server_034.champsimtrace.xz
Gunzip Command 2: xz -dc ../utility-based-partitioning/server_039.champsimtrace.xz
0xde48a00 : 1 curr: 0
0xde48ca0 : 2
After Swap:
Trace File 1: 0xde48a00
Trace File 2: 0xde48ca0
Gunzip Command 1: xz -dc ../utility-based-partitioning/server_039.champsimtrace.xz
Gunzip Command 2: xz -dc ../utility-based-partitioning/server_034.champsimtrace.xz
Successfully read from the swapped trace file.
again: 1
Before Swap:
Trace File 1: 0xde48a00
Trace File 2: 0xde48df0
Gunzip Command 1: xz -dc ../utility-based-partitioning/server_039.champsimtrace.xz
Gunzip Command 2: xz -dc ../utility-based-partitioning/server_038.champsimtrace.xz
0xde48df0 : 0 curr: 1
0xde48a00 : 1
After Swap:
Trace File 1: 0xde48df0
Trace File 2: 0xde48a00
Gunzip Command 1: xz -dc ../utility-based-partitioning/server_038.champsimtrace.xz
Gunzip Command 2: xz -dc ../utility-based-partitioning/server_039.champsimtrace.xz
Successfully read from the swapped trace file.
again: 1
Heartbeat CPU 0 instructions: 120000000 cycles: 415797829 heartbeat IPC: 0.21756 cumulative IPC: 0.232354 (Simulation time: 0 hr 19 min 19 sec) 
Before Swap:
Trace File 1: 0xde48df0
Trace File 2: 0xde48a00
Gunzip Command 1: xz -dc ../utility-based-partitioning/server_038.champsimtrace.xz
Gunzip Command 2: xz -dc ../utility-based-partitioning/server_039.champsimtrace.xz
0xde48a00 : 1 curr: 1
0xde48df0 : 0
After Swap:
Trace File 1: 0xde48a00
Trace File 2: 0xde48df0
Gunzip Command 1: xz -dc ../utility-based-partitioning/server_039.champsimtrace.xz
Gunzip Command 2: xz -dc ../utility-based-partitioning/server_038.champsimtrace.xz
Successfully read from the swapped trace file.
again: 1
Finished CPU 0 instructions: 100000000 cycles: 431609939 cumulative IPC: 0.231691 (Simulation time: 0 hr 20 min 5 sec) 

ChampSim completed all CPUs

Region of Interest Statistics
MPKI for 0xde48a00 trace file: 117.041
MPKI for 0xde48ca0 trace file: 108.583
MPKI for 0xde48df0 trace file: 101.68
MPKI for 0xde48f40 trace file: 100.069

CPU 0 cumulative IPC: 0.231691 instructions: 100000000 cycles: 431609939
ITLB TOTAL     ACCESS:   17923276  HIT:   16839256  MISS:    1084020  HIT %:    93.9519  MISS %:    6.04811   MPKI: 10.8402
ITLB LOAD TRANSLATION ACCESS:   17923276  HIT:   16839256  MISS:    1084020  HIT %:    93.9519  MISS %:    6.04811   MPKI: 10.8402
ITLB PREFETCH  REQUESTED:          0  ISSUED:          0  USEFUL:          0  USELESS:          0
ITLB USEFUL LOAD PREFETCHES:          0 PREFETCH ISSUED TO LOWER LEVEL:          0  ACCURACY: -nan
ITLB TIMELY PREFETCHES:          0 LATE PREFETCHES: 0 DROPPED PREFETCHES: 0
ITLB PREFETCHES SAME FILL-ORIGIN LEVEL: 0 DIFFERENT FILL-ORIGIN LEVEL: 0
ITLB AVERAGE MISS LATENCY: 9.08122 cycles
ITLB RQ	ACCESS:   21184165	FORWARD:          0	MERGED:    3037341	TO_CACHE:   18146824

DTLB TOTAL     ACCESS:   21613966  HIT:   20839732  MISS:     774234  HIT %:    96.4179  MISS %:     3.5821   MPKI: 7.74234
DTLB LOAD TRANSLATION ACCESS:   21613966  HIT:   20839732  MISS:     774234  HIT %:    96.4179  MISS %:     3.5821   MPKI: 7.74234
DTLB PREFETCH  REQUESTED:          0  ISSUED:          0  USEFUL:          0  USELESS:          0
DTLB USEFUL LOAD PREFETCHES:          0 PREFETCH ISSUED TO LOWER LEVEL:          0  ACCURACY: -nan
DTLB TIMELY PREFETCHES:          0 LATE PREFETCHES: 0 DROPPED PREFETCHES: 0
DTLB PREFETCHES SAME FILL-ORIGIN LEVEL: 0 DIFFERENT FILL-ORIGIN LEVEL: 0
DTLB AVERAGE MISS LATENCY: 10.0541 cycles
DTLB RQ	ACCESS:   29457237	FORWARD:          0	MERGED:    7809860	TO_CACHE:   21647377

STLB TOTAL     ACCESS:    1858254  HIT:    1850488  MISS:       7766  HIT %:    99.5821  MISS %:   0.417919   MPKI: 0.07766
STLB LOAD TRANSLATION ACCESS:    1858254  HIT:    1850488  MISS:       7766  HIT %:    99.5821  MISS %:   0.417919   MPKI: 0.07766
STLB PREFETCH  REQUESTED:          0  ISSUED:          0  USEFUL:          0  USELESS:          0
STLB USEFUL LOAD PREFETCHES:          0 PREFETCH ISSUED TO LOWER LEVEL:          0  ACCURACY: -nan
STLB TIMELY PREFETCHES:          0 LATE PREFETCHES: 0 DROPPED PREFETCHES: 0
STLB PREFETCHES SAME FILL-ORIGIN LEVEL: 0 DIFFERENT FILL-ORIGIN LEVEL: 0
STLB AVERAGE MISS LATENCY: 114.753 cycles
STLB RQ	ACCESS:    1858254	FORWARD:          0	MERGED:          0	TO_CACHE:    1858254

STLB Hit, L1D data hit: 0
STLB Hit, L2C data hit: 0
STLB Hit, LLC data hit: 0
STLB Hit, LLC data miss: 0
STLB STLB hints to L2: 0
L1D TOTAL     ACCESS:   29319538  HIT:   28570351  MISS:     749187  HIT %:    97.4448  MISS %:    2.55525   MPKI: 7.49187
L1D LOAD      ACCESS:   16501571  HIT:   15865118  MISS:     636453  HIT %:    96.1431  MISS %:    3.85692   MPKI: 6.36453
L1D RFO       ACCESS:   12817967  HIT:   12705233  MISS:     112734  HIT %:    99.1205  MISS %:     0.8795   MPKI: 1.12734
L1D PREFETCH  REQUESTED:          0  ISSUED:          0  USEFUL:          0  USELESS:          0
L1D USEFUL LOAD PREFETCHES:          0 PREFETCH ISSUED TO LOWER LEVEL:          0  ACCURACY: -nan
L1D TIMELY PREFETCHES:          0 LATE PREFETCHES: 0 DROPPED PREFETCHES: 0
L1D PREFETCHES SAME FILL-ORIGIN LEVEL: 0 DIFFERENT FILL-ORIGIN LEVEL: 0
L1D AVERAGE MISS LATENCY: 31.9512 cycles
L1D RQ	ACCESS:   22926646	FORWARD:          0	MERGED:    6287284	TO_CACHE:   16521765
L1D WQ	ACCESS:   13007949	FORWARD:     117597	MERGED:      72477	TO_CACHE:   12935472

L1D UNIQUE REGIONS ACCESSED: 0
L1D REGIONS CONFLICTS: 0
L1D Cross Page Prefetch Requests: 0
L1D Same Page Prefetch Requests: 0
L1D ROI Sum of L1D PQ occupancy: 0
L1D PREFETCHES PUSHED FROM L2C: 0
L1I TOTAL     ACCESS:   20359667  HIT:   13292183  MISS:    7067484  HIT %:    65.2868  MISS %:    34.7132   MPKI: 70.6748
L1I LOAD      ACCESS:   20359667  HIT:   13292183  MISS:    7067484  HIT %:    65.2868  MISS %:    34.7132   MPKI: 70.6748
L1I PREFETCH  REQUESTED:          0  ISSUED:          0  USEFUL:          0  USELESS:          0
L1I USEFUL LOAD PREFETCHES:          0 PREFETCH ISSUED TO LOWER LEVEL:          0  ACCURACY: -nan
L1I TIMELY PREFETCHES:          0 LATE PREFETCHES: 0 DROPPED PREFETCHES: 0
L1I PREFETCHES SAME FILL-ORIGIN LEVEL: 0 DIFFERENT FILL-ORIGIN LEVEL: 0
L1I AVERAGE MISS LATENCY: 14.3299 cycles
L1I RQ	ACCESS:   28162683	FORWARD:          0	MERGED:    6978518	TO_CACHE:   21184165

BTB TOTAL     ACCESS:   14332750  HIT:    4039111  MISS:   10293639  HIT %:     28.181  MISS %:     71.819   MPKI: 102.936
BTB BRANCH_DIRECT_JUMP	ACCESS:    1192332  HIT:     375562  MISS:     816770
BTB BRANCH_INDIRECT	ACCESS:    6299218  HIT:    1783235  MISS:    4515983
BTB BRANCH_CONDITIONAL	ACCESS:    2136178  HIT:     957008  MISS:    1179170
BTB BRANCH_DIRECT_CALL	ACCESS:    1961054  HIT:     443459  MISS:    1517595
BTB BRANCH_INDIRECT_CALL	ACCESS:     391472  HIT:      68501  MISS:     322971
BTB BRANCH_RETURN	ACCESS:    2352496  HIT:     411346  MISS:    1941150
BTB BRANCH_OTHER ACCESS:          0  HIT:          0  MISS:          0

L2C TOTAL     ACCESS:    8137669  HIT:    7931159  MISS:     206510  HIT %:    97.4623  MISS %:     2.5377   MPKI: 2.0651
L2C LOAD      ACCESS:    7703936  HIT:    7536006  MISS:     167930  HIT %:    97.8202  MISS %:    2.17979   MPKI: 1.6793
L2C DATA LOAD MPKI: 1.4162
L2C INSTRUCTION LOAD MPKI: 0.2631
L2C RFO       ACCESS:     112734  HIT:      81431  MISS:      31303  HIT %:    72.2329  MISS %:    27.7671   MPKI: 0.31303
L2C WRITEBACK ACCESS:     311473  HIT:     309354  MISS:       2119  HIT %:    99.3197  MISS %:   0.680316   MPKI: 0.02119
L2C LOAD TRANSLATION ACCESS:       9526  HIT:       4368  MISS:       5158  HIT %:    45.8535  MISS %:    54.1465   MPKI: 0.05158
L2C PREFETCH  REQUESTED:          0  ISSUED:          0  USEFUL:          0  USELESS:          0
L2C USEFUL LOAD PREFETCHES:          0 PREFETCH ISSUED TO LOWER LEVEL:          0  ACCURACY: -nan
L2C TIMELY PREFETCHES:          0 LATE PREFETCHES: 0 DROPPED PREFETCHES: 0
L2C PREFETCHES SAME FILL-ORIGIN LEVEL: 0 DIFFERENT FILL-ORIGIN LEVEL: 0
L2C AVERAGE MISS LATENCY: 72.4651 cycles
L2C RQ	ACCESS:    7826198	FORWARD:          0	MERGED:          0	TO_CACHE:    7826197
L2C WQ	ACCESS:     311473	FORWARD:          1	MERGED:          0	TO_CACHE:     311473

L2C Instructions Evicting Data 19968
L2C Translations Evicting Data 4264
L2C Data Evicting Data 150246
L2C Instructions Evicting Instructions 5615
L2C Translations Evicting Instructions 699
L2C Data Evicting Instructions 18458
L2C Instructions Evicting Translations 727
L2C Translations Evicting Translations 195
L2C Data Evicting Translations 4219
L2C Dense regions hint from L2: 0
PSCL5 TOTAL     ACCESS:       7766  HIT:       7766  MISS:          0  HIT %:        100  MISS %:          0   MPKI: 0
PSCL5 LOAD TRANSLATION ACCESS:       7766  HIT:       7766  MISS:          0  HIT %:        100  MISS %:          0   MPKI: 0
PSCL5 PREFETCH  REQUESTED:          0  ISSUED:          0  USEFUL:          0  USELESS:          0
PSCL5 USEFUL LOAD PREFETCHES:          0 PREFETCH ISSUED TO LOWER LEVEL:          0  ACCURACY: -nan
PSCL5 TIMELY PREFETCHES:          0 LATE PREFETCHES: 0 DROPPED PREFETCHES: 0
PSCL5 PREFETCHES SAME FILL-ORIGIN LEVEL: 0 DIFFERENT FILL-ORIGIN LEVEL: 0

PSCL4 TOTAL     ACCESS:       6703  HIT:       6658  MISS:         45  HIT %:    99.3287  MISS %:   0.671341   MPKI: 0.00045
PSCL4 LOAD TRANSLATION ACCESS:       6703  HIT:       6658  MISS:         45  HIT %:    99.3287  MISS %:   0.671341   MPKI: 0.00045
PSCL4 PREFETCH  REQUESTED:          0  ISSUED:          0  USEFUL:          0  USELESS:          0
PSCL4 USEFUL LOAD PREFETCHES:          0 PREFETCH ISSUED TO LOWER LEVEL:          0  ACCURACY: -nan
PSCL4 TIMELY PREFETCHES:          0 LATE PREFETCHES: 0 DROPPED PREFETCHES: 0
PSCL4 PREFETCHES SAME FILL-ORIGIN LEVEL: 0 DIFFERENT FILL-ORIGIN LEVEL: 0

PSCL3 TOTAL     ACCESS:       7608  HIT:       7512  MISS:         96  HIT %:    98.7382  MISS %:    1.26183   MPKI: 0.00096
PSCL3 LOAD TRANSLATION ACCESS:       7608  HIT:       7512  MISS:         96  HIT %:    98.7382  MISS %:    1.26183   MPKI: 0.00096
PSCL3 PREFETCH  REQUESTED:          0  ISSUED:          0  USEFUL:          0  USELESS:          0
PSCL3 USEFUL LOAD PREFETCHES:          0 PREFETCH ISSUED TO LOWER LEVEL:          0  ACCURACY: -nan
PSCL3 TIMELY PREFETCHES:          0 LATE PREFETCHES: 0 DROPPED PREFETCHES: 0
PSCL3 PREFETCHES SAME FILL-ORIGIN LEVEL: 0 DIFFERENT FILL-ORIGIN LEVEL: 0

PSCL2 TOTAL     ACCESS:       7766  HIT:       6093  MISS:       1673  HIT %:    78.4574  MISS %:    21.5426   MPKI: 0.01673
PSCL2 LOAD TRANSLATION ACCESS:       7766  HIT:       6093  MISS:       1673  HIT %:    78.4574  MISS %:    21.5426   MPKI: 0.01673
PSCL2 PREFETCH  REQUESTED:          0  ISSUED:          0  USEFUL:          0  USELESS:          0
PSCL2 USEFUL LOAD PREFETCHES:          0 PREFETCH ISSUED TO LOWER LEVEL:          0  ACCURACY: -nan
PSCL2 TIMELY PREFETCHES:          0 LATE PREFETCHES: 0 DROPPED PREFETCHES: 0
PSCL2 PREFETCHES SAME FILL-ORIGIN LEVEL: 0 DIFFERENT FILL-ORIGIN LEVEL: 0

LLC TOTAL     ACCESS:     307676  HIT:     252075  MISS:      55601  HIT %:    81.9287  MISS %:    18.0713   MPKI: 0.55601
LLC LOAD      ACCESS:     167930  HIT:     125916  MISS:      42014  HIT %:    74.9812  MISS %:    25.0188   MPKI: 0.42014
LLC RFO       ACCESS:      31303  HIT:      19616  MISS:      11687  HIT %:    62.6649  MISS %:    37.3351   MPKI: 0.11687
LLC WRITEBACK ACCESS:     103285  HIT:     103088  MISS:        197  HIT %:    99.8093  MISS %:   0.190734   MPKI: 0.00197
LLC LOAD TRANSLATION ACCESS:       5158  HIT:       3455  MISS:       1703  HIT %:    66.9833  MISS %:    33.0167   MPKI: 0.01703
LLC PREFETCH  REQUESTED:          0  ISSUED:          0  USEFUL:          0  USELESS:          0
LLC USEFUL LOAD PREFETCHES:          0 PREFETCH ISSUED TO LOWER LEVEL:          0  ACCURACY: -nan
LLC TIMELY PREFETCHES:          0 LATE PREFETCHES: 0 DROPPED PREFETCHES: 0
LLC PREFETCHES SAME FILL-ORIGIN LEVEL: 0 DIFFERENT FILL-ORIGIN LEVEL: 0
LLC AVERAGE MISS LATENCY: 158.599 cycles
LLC RQ	ACCESS:     204391	FORWARD:          0	MERGED:          0	TO_CACHE:     204391
LLC WQ	ACCESS:     103285	FORWARD:          0	MERGED:          0	TO_CACHE:     103285

LLC Dense regions hint to LLC: 0

RAW hits: 786421
Loads Generated: 23713067
Loads sent to L1D: 22926646
Stores Generated: 13007945
Stores sent to L1D: 13007949
Major fault: 0 Minor fault: 6043
Allocated PAGES: 6043

DRAM Statistics
 CHANNEL 0
 RQ ROW_BUFFER_HIT:      10769  ROW_BUFFER_MISS:      44635
 DBUS_CONGESTED:          7
 WQ ROW_BUFFER_HIT:       4237  ROW_BUFFER_MISS:      17428  FULL:          0

 AVG_CONGESTED_CYCLE: 6
 All warmup complete: 2
Channel 0 Bank busy for read cycles: 0
Channel 0 Bank busy for write cycles: 0
Channel 0
Rank 0
0banks busy for read cycles: 422636804
0banks busy for write cycles: 14039
1banks busy for read cycles: 5184988
1banks busy for write cycles: 2276264
2banks busy for read cycles: 599744
2banks busy for write cycles: 438830
3banks busy for read cycles: 154756
3banks busy for write cycles: 138543
4banks busy for read cycles: 33147
4banks busy for write cycles: 48897
5banks busy for read cycles: 8335
5banks busy for write cycles: 17339
6banks busy for read cycles: 8657
6banks busy for write cycles: 8268
7banks busy for read cycles: 10975
7banks busy for write cycles: 5161
8banks busy for read cycles: 11191
8banks busy for write cycles: 14002

CPU 0 Branch Prediction Accuracy: 96.5551% MPKI: 6.01389 Average ROB Occupancy at Mispredict: 5.92979
Branch types
NOT_BRANCH: 82542803 82.5428%
BRANCH_DIRECT_JUMP: 1192332 1.19233%
BRANCH_INDIRECT: 6299218 6.29922%
BRANCH_CONDITIONAL: 5260555 5.26056%
BRANCH_DIRECT_CALL: 1961054 1.96105%
BRANCH_INDIRECT_CALL: 391472 0.391472%
BRANCH_RETURN: 2352496 2.3525%
BRANCH_OTHER: 0 0%

DRAM PAGES: 1048576
Allocated PAGES: 6043
