
*** ChampSim Multicore Out-of-Order Simulator ***

Warmup Instructions: 25000000
Simulation Instructions: 100000000
Number of CPUs: 1
LLC sets: 2048
LLC ways: 16
Off-chip DRAM Size: 4096 MB Channels: 1 Width: 64-bit Data Rate: 6400 MT/s
CPU 0 runs ./447.dealII-3B.champsimtrace.xz
AAAAA
.xz
./447.dealII-3B.champsimtrace.xz 0
ABDUBDIBDIBDIBD
0x33bf3f70
CPU 0 runs ./456.hmmer-191B.champsimtrace.xz
AAAAA
.xz
./456.hmmer-191B.champsimtrace.xz 1
0x33bf4210
CPU 0 runs ./458.sjeng-1088B.champsimtrace.xz
AAAAA
.xz
./458.sjeng-1088B.champsimtrace.xz 2
0x33bf44b0
CPU 0 runs ./483.xalancbmk-736B.champsimtrace.xz
AAAAA
.xz
./483.xalancbmk-736B.champsimtrace.xz 3
0x33bf4750
CPU 0 Bimodal branch predictor
BTB has LRU replacement policy
ITLB has LRU replacement policy
DTLB has LRU replacement policy
STLB has LRU replacement policy
L1I has LRU replacement policy
L1D has LRU replacement policy
L2C has LRU replacement policy
LLC has LRU replacement policy
Heartbeat CPU 0 instructions: 10000000 cycles: 3798354 heartbeat IPC: 2.63272 cumulative IPC: 2.63272 (Simulation time: 0 hr 0 min 32 sec) 
Heartbeat CPU 0 instructions: 20000003 cycles: 7607979 heartbeat IPC: 2.62493 cumulative IPC: 2.62882 (Simulation time: 0 hr 1 min 21 sec) 

Warmup complete CPU 0 instructions: 25000001 cycles: 9512331 (Simulation time: 0 hr 1 min 52 sec) 

Before Swap:
Trace File 1: 0x33bf4600
Trace File 2: 0x33bf4210
Gunzip Command 1: xz -dc ./447.dealII-3B.champsimtrace.xz
Gunzip Command 2: xz -dc ./456.hmmer-191B.champsimtrace.xz
0x33bf4210 : 1 curr: 0
0x33bf4600 : 0
After Swap:
Trace File 1: 0x33bf4210
Trace File 2: 0x33bf4600
Gunzip Command 1: xz -dc ./456.hmmer-191B.champsimtrace.xz
Gunzip Command 2: xz -dc ./447.dealII-3B.champsimtrace.xz
Milja yr
Successfully read from the swapped trace file.
again: 0
swap_traces called30000000
random_inst = 14673926
Heartbeat CPU 0 instructions: 30000003 cycles: 19796937 heartbeat IPC: 0.820415 cumulative IPC: 0.486164 (Simulation time: 0 hr 2 min 18 sec) 
Heartbeat CPU 0 instructions: 40000000 cycles: 31305531 heartbeat IPC: 0.868916 cumulative IPC: 0.688288 (Simulation time: 0 hr 3 min 1 sec) 
Before Swap:
Trace File 1: 0x33bf4210
Trace File 2: 0x33bf4600
Gunzip Command 1: xz -dc ./456.hmmer-191B.champsimtrace.xz
Gunzip Command 2: xz -dc ./447.dealII-3B.champsimtrace.xz
0x33bf4600 : 0 curr: 0
0x33bf4210 : 1
After Swap:
Trace File 1: 0x33bf4600
Trace File 2: 0x33bf4210
Gunzip Command 1: xz -dc ./447.dealII-3B.champsimtrace.xz
Gunzip Command 2: xz -dc ./456.hmmer-191B.champsimtrace.xz
Milja yr
Successfully read from the swapped trace file.
again: 2
swap_traces called44673926
random_inst = 5742436
Heartbeat CPU 0 instructions: 50000000 cycles: 46724551 heartbeat IPC: 0.64855 cumulative IPC: 0.671822 (Simulation time: 0 hr 3 min 38 sec) 
Before Swap:
Trace File 1: 0x33bf4600
Trace File 2: 0x33bf4750
Gunzip Command 1: xz -dc ./447.dealII-3B.champsimtrace.xz
Gunzip Command 2: xz -dc ./483.xalancbmk-736B.champsimtrace.xz
0x33bf4750 : 3 curr: 2
0x33bf4600 : 0
After Swap:
Trace File 1: 0x33bf4750
Trace File 2: 0x33bf4600
Gunzip Command 1: xz -dc ./483.xalancbmk-736B.champsimtrace.xz
Gunzip Command 2: xz -dc ./447.dealII-3B.champsimtrace.xz
Milja yr
Successfully read from the swapped trace file.
again: 2
swap_traces called50416362
random_inst = 6561090
Before Swap:
Trace File 1: 0x33bf4750
Trace File 2: 0x33bf4600
Gunzip Command 1: xz -dc ./483.xalancbmk-736B.champsimtrace.xz
Gunzip Command 2: xz -dc ./447.dealII-3B.champsimtrace.xz
0x33bf4600 : 0 curr: 2
0x33bf4750 : 3
After Swap:
Trace File 1: 0x33bf4600
Trace File 2: 0x33bf4750
Gunzip Command 1: xz -dc ./447.dealII-3B.champsimtrace.xz
Gunzip Command 2: xz -dc ./483.xalancbmk-736B.champsimtrace.xz
Milja yr
Successfully read from the swapped trace file.
again: 1
swap_traces called56977452
random_inst = 9314226
Heartbeat CPU 0 instructions: 60000003 cycles: 63668797 heartbeat IPC: 0.590171 cumulative IPC: 0.646276 (Simulation time: 0 hr 4 min 11 sec) 
Before Swap:
Trace File 1: 0x33bf4600
Trace File 2: 0x33bf44b0
Gunzip Command 1: xz -dc ./447.dealII-3B.champsimtrace.xz
Gunzip Command 2: xz -dc ./458.sjeng-1088B.champsimtrace.xz
0x33bf44b0 : 2 curr: 1
0x33bf4600 : 0
After Swap:
Trace File 1: 0x33bf44b0
Trace File 2: 0x33bf4600
Gunzip Command 1: xz -dc ./458.sjeng-1088B.champsimtrace.xz
Gunzip Command 2: xz -dc ./447.dealII-3B.champsimtrace.xz
Milja yr
Successfully read from the swapped trace file.
again: 0
swap_traces called66291678
random_inst = 14870847
Heartbeat CPU 0 instructions: 70000000 cycles: 89989548 heartbeat IPC: 0.379928 cumulative IPC: 0.559164 (Simulation time: 0 hr 4 min 46 sec) 
Heartbeat CPU 0 instructions: 80000002 cycles: 117429931 heartbeat IPC: 0.364426 cumulative IPC: 0.509648 (Simulation time: 0 hr 5 min 19 sec) 
Before Swap:
Trace File 1: 0x33bf44b0
Trace File 2: 0x33bf4210
Gunzip Command 1: xz -dc ./458.sjeng-1088B.champsimtrace.xz
Gunzip Command 2: xz -dc ./456.hmmer-191B.champsimtrace.xz
0x33bf4210 : 1 curr: 0
0x33bf44b0 : 2
After Swap:
Trace File 1: 0x33bf4210
Trace File 2: 0x33bf44b0
Gunzip Command 1: xz -dc ./456.hmmer-191B.champsimtrace.xz
Gunzip Command 2: xz -dc ./458.sjeng-1088B.champsimtrace.xz
Milja yr
Successfully read from the swapped trace file.
again: 0
swap_traces called81162525
random_inst = 5416318
Before Swap:
Trace File 1: 0x33bf4210
Trace File 2: 0x33bf44b0
Gunzip Command 1: xz -dc ./456.hmmer-191B.champsimtrace.xz
Gunzip Command 2: xz -dc ./458.sjeng-1088B.champsimtrace.xz
0x33bf44b0 : 2 curr: 0
0x33bf4210 : 1
After Swap:
Trace File 1: 0x33bf44b0
Trace File 2: 0x33bf4210
Gunzip Command 1: xz -dc ./458.sjeng-1088B.champsimtrace.xz
Gunzip Command 2: xz -dc ./456.hmmer-191B.champsimtrace.xz
Milja yr
Successfully read from the swapped trace file.
again: 0
swap_traces called86578843
random_inst = 13300330
Heartbeat CPU 0 instructions: 90000000 cycles: 136391692 heartbeat IPC: 0.527377 cumulative IPC: 0.512298 (Simulation time: 0 hr 6 min 22 sec) 
Before Swap:
Trace File 1: 0x33bf44b0
Trace File 2: 0x33bf4210
Gunzip Command 1: xz -dc ./458.sjeng-1088B.champsimtrace.xz
Gunzip Command 2: xz -dc ./456.hmmer-191B.champsimtrace.xz
0x33bf4210 : 1 curr: 0
0x33bf44b0 : 2
After Swap:
Trace File 1: 0x33bf4210
Trace File 2: 0x33bf44b0
Gunzip Command 1: xz -dc ./456.hmmer-191B.champsimtrace.xz
Gunzip Command 2: xz -dc ./458.sjeng-1088B.champsimtrace.xz
Milja yr
Successfully read from the swapped trace file.
again: 1
swap_traces called99879173
random_inst = 9114561
Heartbeat CPU 0 instructions: 100000001 cycles: 163603972 heartbeat IPC: 0.367481 cumulative IPC: 0.486723 (Simulation time: 0 hr 7 min 0 sec) 
Before Swap:
Trace File 1: 0x33bf4210
Trace File 2: 0x33bf4600
Gunzip Command 1: xz -dc ./456.hmmer-191B.champsimtrace.xz
Gunzip Command 2: xz -dc ./447.dealII-3B.champsimtrace.xz
0x33bf4600 : 0 curr: 1
0x33bf4210 : 1
After Swap:
Trace File 1: 0x33bf4600
Trace File 2: 0x33bf4210
Gunzip Command 1: xz -dc ./447.dealII-3B.champsimtrace.xz
Gunzip Command 2: xz -dc ./456.hmmer-191B.champsimtrace.xz
Milja yr
Successfully read from the swapped trace file.
again: 2
swap_traces called108993734
random_inst = 14924218
Heartbeat CPU 0 instructions: 110000000 cycles: 177353888 heartbeat IPC: 0.727277 cumulative IPC: 0.50643 (Simulation time: 0 hr 7 min 43 sec) 
Heartbeat CPU 0 instructions: 120000002 cycles: 203060311 heartbeat IPC: 0.389008 cumulative IPC: 0.490834 (Simulation time: 0 hr 8 min 28 sec) 
Before Swap:
Trace File 1: 0x33bf4600
Trace File 2: 0x33bf4750
Gunzip Command 1: xz -dc ./447.dealII-3B.champsimtrace.xz
Gunzip Command 2: xz -dc ./483.xalancbmk-736B.champsimtrace.xz
0x33bf4750 : 3 curr: 2
0x33bf4600 : 0
After Swap:
Trace File 1: 0x33bf4750
Trace File 2: 0x33bf4600
Gunzip Command 1: xz -dc ./483.xalancbmk-736B.champsimtrace.xz
Gunzip Command 2: xz -dc ./447.dealII-3B.champsimtrace.xz
Milja yr
Successfully read from the swapped trace file.
again: 2
swap_traces called123917952
random_inst = 12880633
Finished CPU 0 instructions: 100000003 cycles: 205377566 cumulative IPC: 0.486908 (Simulation time: 0 hr 8 min 50 sec) 

ChampSim completed all CPUs

Region of Interest Statistics

CPU 0 cumulative IPC: 0.486908 instructions: 100000003 cycles: 205377566
ITLB TOTAL     ACCESS:   15295392  HIT:   15290543  MISS:       4849  HIT %:    99.9683  MISS %:  0.0317024   MPKI: 0.04849
ITLB LOAD TRANSLATION ACCESS:   15295392  HIT:   15290543  MISS:       4849  HIT %:    99.9683  MISS %:  0.0317024   MPKI: 0.04849
ITLB PREFETCH  REQUESTED:          0  ISSUED:          0  USEFUL:          0  USELESS:          0
ITLB USEFUL LOAD PREFETCHES:          0 PREFETCH ISSUED TO LOWER LEVEL:          0  ACCURACY: -nan
ITLB TIMELY PREFETCHES:          0 LATE PREFETCHES: 0 DROPPED PREFETCHES: 0
ITLB PREFETCHES SAME FILL-ORIGIN LEVEL: 0 DIFFERENT FILL-ORIGIN LEVEL: 0
ITLB AVERAGE MISS LATENCY: 16.6282 cycles
ITLB RQ	ACCESS:   19428662	FORWARD:          0	MERGED:    4131679	TO_CACHE:   15296983

DTLB TOTAL     ACCESS:   28933266  HIT:   28802039  MISS:     131227  HIT %:    99.5464  MISS %:   0.453551   MPKI: 1.31227
DTLB LOAD TRANSLATION ACCESS:   28933266  HIT:   28802039  MISS:     131227  HIT %:    99.5464  MISS %:   0.453551   MPKI: 1.31227
DTLB PREFETCH  REQUESTED:          0  ISSUED:          0  USEFUL:          0  USELESS:          0
DTLB USEFUL LOAD PREFETCHES:          0 PREFETCH ISSUED TO LOWER LEVEL:          0  ACCURACY: -nan
DTLB TIMELY PREFETCHES:          0 LATE PREFETCHES: 0 DROPPED PREFETCHES: 0
DTLB PREFETCHES SAME FILL-ORIGIN LEVEL: 0 DIFFERENT FILL-ORIGIN LEVEL: 0
DTLB AVERAGE MISS LATENCY: 37.6532 cycles
DTLB RQ	ACCESS:   34732006	FORWARD:          0	MERGED:    5792565	TO_CACHE:   28939441

STLB TOTAL     ACCESS:     136076  HIT:     123246  MISS:      12830  HIT %:    90.5714  MISS %:    9.42855   MPKI: 0.1283
STLB LOAD TRANSLATION ACCESS:     136076  HIT:     123246  MISS:      12830  HIT %:    90.5714  MISS %:    9.42855   MPKI: 0.1283
STLB PREFETCH  REQUESTED:          0  ISSUED:          0  USEFUL:          0  USELESS:          0
STLB USEFUL LOAD PREFETCHES:          0 PREFETCH ISSUED TO LOWER LEVEL:          0  ACCURACY: -nan
STLB TIMELY PREFETCHES:          0 LATE PREFETCHES: 0 DROPPED PREFETCHES: 0
STLB PREFETCHES SAME FILL-ORIGIN LEVEL: 0 DIFFERENT FILL-ORIGIN LEVEL: 0
STLB AVERAGE MISS LATENCY: 295.298 cycles
STLB RQ	ACCESS:     136076	FORWARD:          0	MERGED:          0	TO_CACHE:     136076

STLB Hit, L1D data hit: 0
STLB Hit, L2C data hit: 0
STLB Hit, LLC data hit: 0
STLB Hit, LLC data miss: 0
STLB STLB hints to L2: 0
L1D TOTAL     ACCESS:   34199623  HIT:   33723225  MISS:     476398  HIT %:     98.607  MISS %:    1.39299   MPKI: 4.76398
L1D LOAD      ACCESS:   25545982  HIT:   25176055  MISS:     369927  HIT %:    98.5519  MISS %:    1.44808   MPKI: 3.69927
L1D RFO       ACCESS:    8653641  HIT:    8547170  MISS:     106471  HIT %:    98.7696  MISS %:    1.23036   MPKI: 1.06471
L1D PREFETCH  REQUESTED:          0  ISSUED:          0  USEFUL:          0  USELESS:          0
L1D USEFUL LOAD PREFETCHES:          0 PREFETCH ISSUED TO LOWER LEVEL:          0  ACCURACY: -nan
L1D TIMELY PREFETCHES:          0 LATE PREFETCHES: 0 DROPPED PREFETCHES: 0
L1D PREFETCHES SAME FILL-ORIGIN LEVEL: 0 DIFFERENT FILL-ORIGIN LEVEL: 0
L1D AVERAGE MISS LATENCY: 68.3114 cycles
L1D RQ	ACCESS:   35854907	FORWARD:          0	MERGED:    9225820	TO_CACHE:   25720780
L1D WQ	ACCESS:   11203107	FORWARD:     908307	MERGED:    2191881	TO_CACHE:    9011226

L1D UNIQUE REGIONS ACCESSED: 0
L1D REGIONS CONFLICTS: 0
L1D Cross Page Prefetch Requests: 0
L1D Same Page Prefetch Requests: 0
L1D ROI Sum of L1D PQ occupancy: 0
L1D PREFETCHES PUSHED FROM L2C: 0
L1I TOTAL     ACCESS:   19426950  HIT:   19418947  MISS:       8003  HIT %:    99.9588  MISS %:  0.0411953   MPKI: 0.08003
L1I LOAD      ACCESS:   19426950  HIT:   19418947  MISS:       8003  HIT %:    99.9588  MISS %:  0.0411953   MPKI: 0.08003
L1I PREFETCH  REQUESTED:          0  ISSUED:          0  USEFUL:          0  USELESS:          0
L1I USEFUL LOAD PREFETCHES:          0 PREFETCH ISSUED TO LOWER LEVEL:          0  ACCURACY: -nan
L1I TIMELY PREFETCHES:          0 LATE PREFETCHES: 0 DROPPED PREFETCHES: 0
L1I PREFETCHES SAME FILL-ORIGIN LEVEL: 0 DIFFERENT FILL-ORIGIN LEVEL: 0
L1I AVERAGE MISS LATENCY: 74.2664 cycles
L1I RQ	ACCESS:   27761369	FORWARD:          0	MERGED:    8332707	TO_CACHE:   19428662

BTB TOTAL     ACCESS:   11270186  HIT:   10947546  MISS:     322640  HIT %:    97.1372  MISS %:    2.86277   MPKI: 3.2264
BTB BRANCH_DIRECT_JUMP	ACCESS:     509259  HIT:     508796  MISS:        463
BTB BRANCH_INDIRECT	ACCESS:     184684  HIT:      88661  MISS:      96023
BTB BRANCH_CONDITIONAL	ACCESS:    8144229  HIT:    8143047  MISS:       1182
BTB BRANCH_DIRECT_CALL	ACCESS:    1048640  HIT:    1048154  MISS:        486
BTB BRANCH_INDIRECT_CALL	ACCESS:     167644  HIT:     111819  MISS:      55825
BTB BRANCH_RETURN	ACCESS:    1215730  HIT:    1047069  MISS:     168661
BTB BRANCH_OTHER ACCESS:          0  HIT:          0  MISS:          0

L2C TOTAL     ACCESS:     623826  HIT:     487681  MISS:     136145  HIT %:    78.1758  MISS %:    21.8242   MPKI: 1.36145
L2C LOAD      ACCESS:     377930  HIT:     346122  MISS:      31808  HIT %:    91.5836  MISS %:    8.41637   MPKI: 0.31808
L2C DATA LOAD MPKI: 0.29369
L2C INSTRUCTION LOAD MPKI: 0.02439
L2C RFO       ACCESS:     106471  HIT:       8397  MISS:      98074  HIT %:    7.88665  MISS %:    92.1133   MPKI: 0.98074
L2C WRITEBACK ACCESS:     124157  HIT:     124028  MISS:        129  HIT %:    99.8961  MISS %:   0.103901   MPKI: 0.00129
L2C LOAD TRANSLATION ACCESS:      15268  HIT:       9134  MISS:       6134  HIT %:    59.8245  MISS %:    40.1755   MPKI: 0.06134
L2C PREFETCH  REQUESTED:          0  ISSUED:          0  USEFUL:          0  USELESS:          0
L2C USEFUL LOAD PREFETCHES:          0 PREFETCH ISSUED TO LOWER LEVEL:          0  ACCURACY: -nan
L2C TIMELY PREFETCHES:          0 LATE PREFETCHES: 0 DROPPED PREFETCHES: 0
L2C PREFETCHES SAME FILL-ORIGIN LEVEL: 0 DIFFERENT FILL-ORIGIN LEVEL: 0
L2C AVERAGE MISS LATENCY: 196.224 cycles
L2C RQ	ACCESS:     499669	FORWARD:          0	MERGED:          0	TO_CACHE:     499669
L2C WQ	ACCESS:     124157	FORWARD:          0	MERGED:          0	TO_CACHE:     124157

L2C Instructions Evicting Data 2323
L2C Translations Evicting Data 5805
L2C Data Evicting Data 115520
L2C Instructions Evicting Instructions 59
L2C Translations Evicting Instructions 155
L2C Data Evicting Instructions 2235
L2C Instructions Evicting Translations 43
L2C Translations Evicting Translations 146
L2C Data Evicting Translations 5297
L2C Dense regions hint from L2: 0
PSCL5 TOTAL     ACCESS:      12830  HIT:      12830  MISS:          0  HIT %:        100  MISS %:          0   MPKI: 0
PSCL5 LOAD TRANSLATION ACCESS:      12830  HIT:      12830  MISS:          0  HIT %:        100  MISS %:          0   MPKI: 0
PSCL5 PREFETCH  REQUESTED:          0  ISSUED:          0  USEFUL:          0  USELESS:          0
PSCL5 USEFUL LOAD PREFETCHES:          0 PREFETCH ISSUED TO LOWER LEVEL:          0  ACCURACY: -nan
PSCL5 TIMELY PREFETCHES:          0 LATE PREFETCHES: 0 DROPPED PREFETCHES: 0
PSCL5 PREFETCHES SAME FILL-ORIGIN LEVEL: 0 DIFFERENT FILL-ORIGIN LEVEL: 0

PSCL4 TOTAL     ACCESS:      12830  HIT:      12829  MISS:          1  HIT %:    99.9922  MISS %: 0.00779423   MPKI: 1e-05
PSCL4 LOAD TRANSLATION ACCESS:      12830  HIT:      12829  MISS:          1  HIT %:    99.9922  MISS %: 0.00779423   MPKI: 1e-05
PSCL4 PREFETCH  REQUESTED:          0  ISSUED:          0  USEFUL:          0  USELESS:          0
PSCL4 USEFUL LOAD PREFETCHES:          0 PREFETCH ISSUED TO LOWER LEVEL:          0  ACCURACY: -nan
PSCL4 TIMELY PREFETCHES:          0 LATE PREFETCHES: 0 DROPPED PREFETCHES: 0
PSCL4 PREFETCHES SAME FILL-ORIGIN LEVEL: 0 DIFFERENT FILL-ORIGIN LEVEL: 0

PSCL3 TOTAL     ACCESS:      12830  HIT:      12820  MISS:         10  HIT %:    99.9221  MISS %:  0.0779423   MPKI: 0.0001
PSCL3 LOAD TRANSLATION ACCESS:      12830  HIT:      12820  MISS:         10  HIT %:    99.9221  MISS %:  0.0779423   MPKI: 0.0001
PSCL3 PREFETCH  REQUESTED:          0  ISSUED:          0  USEFUL:          0  USELESS:          0
PSCL3 USEFUL LOAD PREFETCHES:          0 PREFETCH ISSUED TO LOWER LEVEL:          0  ACCURACY: -nan
PSCL3 TIMELY PREFETCHES:          0 LATE PREFETCHES: 0 DROPPED PREFETCHES: 0
PSCL3 PREFETCHES SAME FILL-ORIGIN LEVEL: 0 DIFFERENT FILL-ORIGIN LEVEL: 0

PSCL2 TOTAL     ACCESS:      12830  HIT:      10133  MISS:       2697  HIT %:     78.979  MISS %:     21.021   MPKI: 0.02697
PSCL2 LOAD TRANSLATION ACCESS:      12830  HIT:      10133  MISS:       2697  HIT %:     78.979  MISS %:     21.021   MPKI: 0.02697
PSCL2 PREFETCH  REQUESTED:          0  ISSUED:          0  USEFUL:          0  USELESS:          0
PSCL2 USEFUL LOAD PREFETCHES:          0 PREFETCH ISSUED TO LOWER LEVEL:          0  ACCURACY: -nan
PSCL2 TIMELY PREFETCHES:          0 LATE PREFETCHES: 0 DROPPED PREFETCHES: 0
PSCL2 PREFETCHES SAME FILL-ORIGIN LEVEL: 0 DIFFERENT FILL-ORIGIN LEVEL: 0

LLC TOTAL     ACCESS:     242273  HIT:     111542  MISS:     130731  HIT %:    46.0398  MISS %:    53.9602   MPKI: 1.30731
LLC LOAD      ACCESS:      31808  HIT:       3385  MISS:      28423  HIT %:     10.642  MISS %:     89.358   MPKI: 0.28423
LLC RFO       ACCESS:      98074  HIT:        426  MISS:      97648  HIT %:   0.434366  MISS %:    99.5656   MPKI: 0.97648
LLC WRITEBACK ACCESS:     106257  HIT:     106237  MISS:         20  HIT %:    99.9812  MISS %:  0.0188223   MPKI: 0.0002
LLC LOAD TRANSLATION ACCESS:       6134  HIT:       1494  MISS:       4640  HIT %:     24.356  MISS %:     75.644   MPKI: 0.0464
LLC PREFETCH  REQUESTED:          0  ISSUED:          0  USEFUL:          0  USELESS:          0
LLC USEFUL LOAD PREFETCHES:          0 PREFETCH ISSUED TO LOWER LEVEL:          0  ACCURACY: -nan
LLC TIMELY PREFETCHES:          0 LATE PREFETCHES: 0 DROPPED PREFETCHES: 0
LLC PREFETCHES SAME FILL-ORIGIN LEVEL: 0 DIFFERENT FILL-ORIGIN LEVEL: 0
LLC AVERAGE MISS LATENCY: 172.169 cycles
LLC RQ	ACCESS:     136016	FORWARD:          0	MERGED:          0	TO_CACHE:     136016
LLC WQ	ACCESS:     106257	FORWARD:          0	MERGED:          0	TO_CACHE:     106257

LLC Dense regions hint to LLC: 0

RAW hits: 1005871
Loads Generated: 36860774
Loads sent to L1D: 35854907
Stores Generated: 11203107
Stores sent to L1D: 11203107
Major fault: 0 Minor fault: 10232
Allocated PAGES: 10232

DRAM Statistics
 CHANNEL 0
 RQ ROW_BUFFER_HIT:      60533  ROW_BUFFER_MISS:      70178
 DBUS_CONGESTED:         40
 WQ ROW_BUFFER_HIT:      16375  ROW_BUFFER_MISS:      68381  FULL:          0

 AVG_CONGESTED_CYCLE: 5
 All warmup complete: 2
Channel 0 Bank busy for read cycles: 0
Channel 0 Bank busy for write cycles: 0
Channel 0
Rank 0
0banks busy for read cycles: 184927829
0banks busy for write cycles: 53125
1banks busy for read cycles: 9889449
1banks busy for write cycles: 7753628
2banks busy for read cycles: 1055936
2banks busy for write cycles: 454803
3banks busy for read cycles: 236537
3banks busy for write cycles: 119287
4banks busy for read cycles: 127570
4banks busy for write cycles: 71427
5banks busy for read cycles: 49726
5banks busy for write cycles: 70241
6banks busy for read cycles: 15508
6banks busy for write cycles: 59603
7banks busy for read cycles: 1617
7banks busy for write cycles: 88702
8banks busy for read cycles: 166
8banks busy for write cycles: 402413

CPU 0 Branch Prediction Accuracy: 90.8622% MPKI: 11.673 Average ROB Occupancy at Mispredict: 26.7453
Branch types
NOT_BRANCH: 87225302 87.2253%
BRANCH_DIRECT_JUMP: 509259 0.509259%
BRANCH_INDIRECT: 184684 0.184684%
BRANCH_CONDITIONAL: 9648408 9.64841%
BRANCH_DIRECT_CALL: 1048640 1.04864%
BRANCH_INDIRECT_CALL: 167644 0.167644%
BRANCH_RETURN: 1215730 1.21573%
BRANCH_OTHER: 0 0%

DRAM PAGES: 1048576
Allocated PAGES: 10232
