
*** ChampSim Multicore Out-of-Order Simulator ***

Warmup Instructions: 25000000
Simulation Instructions: 100000000
Number of CPUs: 1
LLC sets: 2048
LLC ways: 16
Off-chip DRAM Size: 4096 MB Channels: 1 Width: 64-bit Data Rate: 6400 MT/s
CPU 0 runs ./429.mcf-217B.champsimtrace.xz
AAAAA
.xz
./429.mcf-217B.champsimtrace.xz 0
ABDUBDIBDIBDIBD
0x2aa4cf70
CPU 0 runs ./445.gobmk-17B.champsimtrace.xz
AAAAA
.xz
./445.gobmk-17B.champsimtrace.xz 1
0x2aa4d210
CPU 0 runs ./447.dealII-3B.champsimtrace.xz
AAAAA
.xz
./447.dealII-3B.champsimtrace.xz 2
0x2aa4d4b0
CPU 0 runs ./456.hmmer-191B.champsimtrace.xz
AAAAA
.xz
./456.hmmer-191B.champsimtrace.xz 3
0x2aa4d750
CPU 0 Bimodal branch predictor
BTB has LRU replacement policy
ITLB has LRU replacement policy
DTLB has LRU replacement policy
STLB has LRU replacement policy
L1I has LRU replacement policy
L1D has LRU replacement policy
L2C has LRU replacement policy
LLC has LRU replacement policy
Heartbeat CPU 0 instructions: 10000000 cycles: 2789259 heartbeat IPC: 3.58518 cumulative IPC: 3.58518 (Simulation time: 0 hr 0 min 24 sec) 
Heartbeat CPU 0 instructions: 20000002 cycles: 7105454 heartbeat IPC: 2.31686 cumulative IPC: 2.81474 (Simulation time: 0 hr 0 min 57 sec) 

Warmup complete CPU 0 instructions: 25000004 cycles: 8566422 (Simulation time: 0 hr 1 min 9 sec) 

Before Swap:
Trace File 1: 0x2aa4d600
Trace File 2: 0x2aa4d210
Gunzip Command 1: xz -dc ./429.mcf-217B.champsimtrace.xz
Gunzip Command 2: xz -dc ./445.gobmk-17B.champsimtrace.xz
0x2aa4d210 : 1 curr: 0
0x2aa4d600 : 0
After Swap:
Trace File 1: 0x2aa4d210
Trace File 2: 0x2aa4d600
Gunzip Command 1: xz -dc ./445.gobmk-17B.champsimtrace.xz
Gunzip Command 2: xz -dc ./429.mcf-217B.champsimtrace.xz
Milja yr
Successfully read from the swapped trace file.
again: 1
swap_traces called30000000
random_inst = 7604603
Heartbeat CPU 0 instructions: 30000001 cycles: 55476928 heartbeat IPC: 0.206733 cumulative IPC: 0.106586 (Simulation time: 0 hr 1 min 54 sec) 
Before Swap:
Trace File 1: 0x2aa4d210
Trace File 2: 0x2aa4d4b0
Gunzip Command 1: xz -dc ./445.gobmk-17B.champsimtrace.xz
Gunzip Command 2: xz -dc ./447.dealII-3B.champsimtrace.xz
0x2aa4d4b0 : 2 curr: 1
0x2aa4d210 : 1
After Swap:
Trace File 1: 0x2aa4d4b0
Trace File 2: 0x2aa4d210
Gunzip Command 1: xz -dc ./447.dealII-3B.champsimtrace.xz
Gunzip Command 2: xz -dc ./445.gobmk-17B.champsimtrace.xz
Milja yr
Successfully read from the swapped trace file.
again: 2
swap_traces called37604603
random_inst = 10931240
Heartbeat CPU 0 instructions: 40000000 cycles: 83454037 heartbeat IPC: 0.357435 cumulative IPC: 0.2003 (Simulation time: 0 hr 2 min 48 sec) 
Before Swap:
Trace File 1: 0x2aa4d4b0
Trace File 2: 0x2aa4d750
Gunzip Command 1: xz -dc ./447.dealII-3B.champsimtrace.xz
Gunzip Command 2: xz -dc ./456.hmmer-191B.champsimtrace.xz
0x2aa4d750 : 3 curr: 2
0x2aa4d4b0 : 2
After Swap:
Trace File 1: 0x2aa4d750
Trace File 2: 0x2aa4d4b0
Gunzip Command 1: xz -dc ./456.hmmer-191B.champsimtrace.xz
Gunzip Command 2: xz -dc ./447.dealII-3B.champsimtrace.xz
Milja yr
Successfully read from the swapped trace file.
again: 0
swap_traces called48535843
random_inst = 9918407
Heartbeat CPU 0 instructions: 50000000 cycles: 107194227 heartbeat IPC: 0.421227 cumulative IPC: 0.253478 (Simulation time: 0 hr 3 min 56 sec) 
Before Swap:
Trace File 1: 0x2aa4d750
Trace File 2: 0x2aa4d600
Gunzip Command 1: xz -dc ./456.hmmer-191B.champsimtrace.xz
Gunzip Command 2: xz -dc ./429.mcf-217B.champsimtrace.xz
0x2aa4d600 : 0 curr: 0
0x2aa4d750 : 3
After Swap:
Trace File 1: 0x2aa4d600
Trace File 2: 0x2aa4d750
Gunzip Command 1: xz -dc ./429.mcf-217B.champsimtrace.xz
Gunzip Command 2: xz -dc ./456.hmmer-191B.champsimtrace.xz
Milja yr
Successfully read from the swapped trace file.
again: 0
swap_traces called58454250
random_inst = 11763913
Heartbeat CPU 0 instructions: 60000002 cycles: 119325939 heartbeat IPC: 0.824286 cumulative IPC: 0.316 (Simulation time: 0 hr 5 min 8 sec) 
Heartbeat CPU 0 instructions: 70000000 cycles: 147149119 heartbeat IPC: 0.359412 cumulative IPC: 0.324716 (Simulation time: 0 hr 6 min 10 sec) 
Before Swap:
Trace File 1: 0x2aa4d600
Trace File 2: 0x2aa4d750
Gunzip Command 1: xz -dc ./429.mcf-217B.champsimtrace.xz
Gunzip Command 2: xz -dc ./456.hmmer-191B.champsimtrace.xz
0x2aa4d750 : 3 curr: 0
0x2aa4d600 : 0
After Swap:
Trace File 1: 0x2aa4d750
Trace File 2: 0x2aa4d600
Gunzip Command 1: xz -dc ./456.hmmer-191B.champsimtrace.xz
Gunzip Command 2: xz -dc ./429.mcf-217B.champsimtrace.xz
Milja yr
Successfully read from the swapped trace file.
again: 1
swap_traces called70218163
random_inst = 13577674
Heartbeat CPU 0 instructions: 80000000 cycles: 158738885 heartbeat IPC: 0.86283 cumulative IPC: 0.366246 (Simulation time: 0 hr 6 min 54 sec) 
Before Swap:
Trace File 1: 0x2aa4d750
Trace File 2: 0x2aa4d210
Gunzip Command 1: xz -dc ./456.hmmer-191B.champsimtrace.xz
Gunzip Command 2: xz -dc ./445.gobmk-17B.champsimtrace.xz
0x2aa4d210 : 1 curr: 1
0x2aa4d750 : 3
After Swap:
Trace File 1: 0x2aa4d210
Trace File 2: 0x2aa4d750
Gunzip Command 1: xz -dc ./445.gobmk-17B.champsimtrace.xz
Gunzip Command 2: xz -dc ./456.hmmer-191B.champsimtrace.xz
Milja yr
Successfully read from the swapped trace file.
again: 1
swap_traces called83795837
random_inst = 10363148
Heartbeat CPU 0 instructions: 90000000 cycles: 181867165 heartbeat IPC: 0.432371 cumulative IPC: 0.375071 (Simulation time: 0 hr 7 min 30 sec) 
Before Swap:
Trace File 1: 0x2aa4d210
Trace File 2: 0x2aa4d750
Gunzip Command 1: xz -dc ./445.gobmk-17B.champsimtrace.xz
Gunzip Command 2: xz -dc ./456.hmmer-191B.champsimtrace.xz
0x2aa4d750 : 3 curr: 1
0x2aa4d210 : 1
After Swap:
Trace File 1: 0x2aa4d750
Trace File 2: 0x2aa4d210
Gunzip Command 1: xz -dc ./456.hmmer-191B.champsimtrace.xz
Gunzip Command 2: xz -dc ./445.gobmk-17B.champsimtrace.xz
Milja yr
Successfully read from the swapped trace file.
again: 0
swap_traces called94158985
random_inst = 12709051
Heartbeat CPU 0 instructions: 100000003 cycles: 200305836 heartbeat IPC: 0.542339 cumulative IPC: 0.391156 (Simulation time: 0 hr 8 min 8 sec) 
Before Swap:
Trace File 1: 0x2aa4d750
Trace File 2: 0x2aa4d600
Gunzip Command 1: xz -dc ./456.hmmer-191B.champsimtrace.xz
Gunzip Command 2: xz -dc ./429.mcf-217B.champsimtrace.xz
0x2aa4d600 : 0 curr: 0
0x2aa4d750 : 3
After Swap:
Trace File 1: 0x2aa4d600
Trace File 2: 0x2aa4d750
Gunzip Command 1: xz -dc ./429.mcf-217B.champsimtrace.xz
Gunzip Command 2: xz -dc ./456.hmmer-191B.champsimtrace.xz
Milja yr
Successfully read from the swapped trace file.
again: 1
swap_traces called106868036
random_inst = 13021955
Heartbeat CPU 0 instructions: 110000000 cycles: 219618384 heartbeat IPC: 0.517798 cumulative IPC: 0.402744 (Simulation time: 0 hr 8 min 48 sec) 
Before Swap:
Trace File 1: 0x2aa4d600
Trace File 2: 0x2aa4d210
Gunzip Command 1: xz -dc ./429.mcf-217B.champsimtrace.xz
Gunzip Command 2: xz -dc ./445.gobmk-17B.champsimtrace.xz
0x2aa4d210 : 1 curr: 1
0x2aa4d600 : 0
After Swap:
Trace File 1: 0x2aa4d210
Trace File 2: 0x2aa4d600
Gunzip Command 1: xz -dc ./445.gobmk-17B.champsimtrace.xz
Gunzip Command 2: xz -dc ./429.mcf-217B.champsimtrace.xz
Milja yr
Successfully read from the swapped trace file.
again: 1
swap_traces called119889991
random_inst = 9643370
Heartbeat CPU 0 instructions: 120000000 cycles: 284308272 heartbeat IPC: 0.154584 cumulative IPC: 0.344525 (Simulation time: 0 hr 9 min 47 sec) 
Finished CPU 0 instructions: 100000001 cycles: 289520004 cumulative IPC: 0.345399 (Simulation time: 0 hr 10 min 2 sec) 

ChampSim completed all CPUs

Region of Interest Statistics

CPU 0 cumulative IPC: 0.345399 instructions: 100000001 cycles: 289520004
ITLB TOTAL     ACCESS:   15615010  HIT:   15614671  MISS:        339  HIT %:    99.9978  MISS %: 0.00217099   MPKI: 0.00339
ITLB LOAD TRANSLATION ACCESS:   15615010  HIT:   15614671  MISS:        339  HIT %:    99.9978  MISS %: 0.00217099   MPKI: 0.00339
ITLB PREFETCH  REQUESTED:          0  ISSUED:          0  USEFUL:          0  USELESS:          0
ITLB USEFUL LOAD PREFETCHES:          0 PREFETCH ISSUED TO LOWER LEVEL:          0  ACCURACY: -nan
ITLB TIMELY PREFETCHES:          0 LATE PREFETCHES: 0 DROPPED PREFETCHES: 0
ITLB PREFETCHES SAME FILL-ORIGIN LEVEL: 0 DIFFERENT FILL-ORIGIN LEVEL: 0
ITLB AVERAGE MISS LATENCY: 89.3481 cycles
ITLB RQ	ACCESS:   20923838	FORWARD:          0	MERGED:    5308747	TO_CACHE:   15615091

DTLB TOTAL     ACCESS:   29379106  HIT:   29305298  MISS:      73808  HIT %:    99.7488  MISS %:   0.251226   MPKI: 0.73808
DTLB LOAD TRANSLATION ACCESS:   29379106  HIT:   29305298  MISS:      73808  HIT %:    99.7488  MISS %:   0.251226   MPKI: 0.73808
DTLB PREFETCH  REQUESTED:          0  ISSUED:          0  USEFUL:          0  USELESS:          0
DTLB USEFUL LOAD PREFETCHES:          0 PREFETCH ISSUED TO LOWER LEVEL:          0  ACCURACY: -nan
DTLB TIMELY PREFETCHES:          0 LATE PREFETCHES: 0 DROPPED PREFETCHES: 0
DTLB PREFETCHES SAME FILL-ORIGIN LEVEL: 0 DIFFERENT FILL-ORIGIN LEVEL: 0
DTLB AVERAGE MISS LATENCY: 39.5821 cycles
DTLB RQ	ACCESS:   37934278	FORWARD:          0	MERGED:    8550146	TO_CACHE:   29384132

STLB TOTAL     ACCESS:      74147  HIT:      41805  MISS:      32342  HIT %:    56.3812  MISS %:    43.6188   MPKI: 0.32342
STLB LOAD TRANSLATION ACCESS:      74147  HIT:      41805  MISS:      32342  HIT %:    56.3812  MISS %:    43.6188   MPKI: 0.32342
STLB PREFETCH  REQUESTED:          0  ISSUED:          0  USEFUL:          0  USELESS:          0
STLB USEFUL LOAD PREFETCHES:          0 PREFETCH ISSUED TO LOWER LEVEL:          0  ACCURACY: -nan
STLB TIMELY PREFETCHES:          0 LATE PREFETCHES: 0 DROPPED PREFETCHES: 0
STLB PREFETCHES SAME FILL-ORIGIN LEVEL: 0 DIFFERENT FILL-ORIGIN LEVEL: 0
STLB AVERAGE MISS LATENCY: 70.4678 cycles
STLB RQ	ACCESS:      74147	FORWARD:          0	MERGED:          0	TO_CACHE:      74147

STLB Hit, L1D data hit: 0
STLB Hit, L2C data hit: 0
STLB Hit, LLC data hit: 0
STLB Hit, LLC data miss: 0
STLB STLB hints to L2: 0
L1D TOTAL     ACCESS:   37515962  HIT:   35713078  MISS:    1802884  HIT %:    95.1944  MISS %:    4.80565   MPKI: 18.0288
L1D LOAD      ACCESS:   24283594  HIT:   22596010  MISS:    1687584  HIT %:    93.0505  MISS %:    6.94948   MPKI: 16.8758
L1D RFO       ACCESS:   13232368  HIT:   13117068  MISS:     115300  HIT %:    99.1287  MISS %:   0.871348   MPKI: 1.153
L1D PREFETCH  REQUESTED:          0  ISSUED:          0  USEFUL:          0  USELESS:          0
L1D USEFUL LOAD PREFETCHES:          0 PREFETCH ISSUED TO LOWER LEVEL:          0  ACCURACY: -nan
L1D TIMELY PREFETCHES:          0 LATE PREFETCHES: 0 DROPPED PREFETCHES: 0
L1D PREFETCHES SAME FILL-ORIGIN LEVEL: 0 DIFFERENT FILL-ORIGIN LEVEL: 0
L1D AVERAGE MISS LATENCY: 150.55 cycles
L1D RQ	ACCESS:   34385896	FORWARD:          0	MERGED:    9628629	TO_CACHE:   24395667
L1D WQ	ACCESS:   16417695	FORWARD:     361600	MERGED:    2879084	TO_CACHE:   13538611

L1D UNIQUE REGIONS ACCESSED: 0
L1D REGIONS CONFLICTS: 0
L1D Cross Page Prefetch Requests: 0
L1D Same Page Prefetch Requests: 0
L1D ROI Sum of L1D PQ occupancy: 0
L1D PREFETCHES PUSHED FROM L2C: 0
L1I TOTAL     ACCESS:   20905052  HIT:   20817643  MISS:      87409  HIT %:    99.5819  MISS %:   0.418124   MPKI: 0.87409
L1I LOAD      ACCESS:   20905052  HIT:   20817643  MISS:      87409  HIT %:    99.5819  MISS %:   0.418124   MPKI: 0.87409
L1I PREFETCH  REQUESTED:          0  ISSUED:          0  USEFUL:          0  USELESS:          0
L1I USEFUL LOAD PREFETCHES:          0 PREFETCH ISSUED TO LOWER LEVEL:          0  ACCURACY: -nan
L1I TIMELY PREFETCHES:          0 LATE PREFETCHES: 0 DROPPED PREFETCHES: 0
L1I PREFETCHES SAME FILL-ORIGIN LEVEL: 0 DIFFERENT FILL-ORIGIN LEVEL: 0
L1I AVERAGE MISS LATENCY: 23.5034 cycles
L1I RQ	ACCESS:   28184769	FORWARD:          0	MERGED:    7260931	TO_CACHE:   20923838

BTB TOTAL     ACCESS:    9327070  HIT:    9190474  MISS:     136596  HIT %:    98.5355  MISS %:    1.46451   MPKI: 1.36596
BTB BRANCH_DIRECT_JUMP	ACCESS:     277177  HIT:     276069  MISS:       1108
BTB BRANCH_INDIRECT	ACCESS:       2334  HIT:       2081  MISS:        253
BTB BRANCH_CONDITIONAL	ACCESS:    7844114  HIT:    7840559  MISS:       3555
BTB BRANCH_DIRECT_CALL	ACCESS:     600365  HIT:     599181  MISS:       1184
BTB BRANCH_INDIRECT_CALL	ACCESS:       1358  HIT:       1269  MISS:         89
BTB BRANCH_RETURN	ACCESS:     601722  HIT:     471315  MISS:     130407
BTB BRANCH_OTHER ACCESS:          0  HIT:          0  MISS:          0

L2C TOTAL     ACCESS:    2097347  HIT:     383492  MISS:    1713855  HIT %:    18.2846  MISS %:    81.7154   MPKI: 17.1385
L2C LOAD      ACCESS:    1774993  HIT:     167131  MISS:    1607862  HIT %:    9.41587  MISS %:    90.5841   MPKI: 16.0786
L2C DATA LOAD MPKI: 16.0308
L2C INSTRUCTION LOAD MPKI: 0.04786
L2C RFO       ACCESS:     115300  HIT:      15153  MISS:     100147  HIT %:    13.1422  MISS %:    86.8578   MPKI: 1.00147
L2C WRITEBACK ACCESS:     174642  HIT:     174199  MISS:        443  HIT %:    99.7463  MISS %:   0.253662   MPKI: 0.00443
L2C LOAD TRANSLATION ACCESS:      32412  HIT:      27009  MISS:       5403  HIT %:    83.3302  MISS %:    16.6698   MPKI: 0.05403
L2C PREFETCH  REQUESTED:          0  ISSUED:          0  USEFUL:          0  USELESS:          0
L2C USEFUL LOAD PREFETCHES:          0 PREFETCH ISSUED TO LOWER LEVEL:          0  ACCURACY: -nan
L2C TIMELY PREFETCHES:          0 LATE PREFETCHES: 0 DROPPED PREFETCHES: 0
L2C PREFETCHES SAME FILL-ORIGIN LEVEL: 0 DIFFERENT FILL-ORIGIN LEVEL: 0
L2C AVERAGE MISS LATENCY: 143.549 cycles
L2C RQ	ACCESS:    1922705	FORWARD:          0	MERGED:          0	TO_CACHE:    1922705
L2C WQ	ACCESS:     174642	FORWARD:          0	MERGED:          0	TO_CACHE:     174642

L2C Instructions Evicting Data 4717
L2C Translations Evicting Data 5359
L2C Data Evicting Data 1694501
L2C Instructions Evicting Instructions 45
L2C Translations Evicting Instructions 15
L2C Data Evicting Instructions 3563
L2C Instructions Evicting Translations 24
L2C Translations Evicting Translations 29
L2C Data Evicting Translations 5159
L2C Dense regions hint from L2: 0
PSCL5 TOTAL     ACCESS:      32342  HIT:      32342  MISS:          0  HIT %:        100  MISS %:          0   MPKI: 0
PSCL5 LOAD TRANSLATION ACCESS:      32342  HIT:      32342  MISS:          0  HIT %:        100  MISS %:          0   MPKI: 0
PSCL5 PREFETCH  REQUESTED:          0  ISSUED:          0  USEFUL:          0  USELESS:          0
PSCL5 USEFUL LOAD PREFETCHES:          0 PREFETCH ISSUED TO LOWER LEVEL:          0  ACCURACY: -nan
PSCL5 TIMELY PREFETCHES:          0 LATE PREFETCHES: 0 DROPPED PREFETCHES: 0
PSCL5 PREFETCHES SAME FILL-ORIGIN LEVEL: 0 DIFFERENT FILL-ORIGIN LEVEL: 0

PSCL4 TOTAL     ACCESS:      32342  HIT:      32341  MISS:          1  HIT %:    99.9969  MISS %: 0.00309195   MPKI: 1e-05
PSCL4 LOAD TRANSLATION ACCESS:      32342  HIT:      32341  MISS:          1  HIT %:    99.9969  MISS %: 0.00309195   MPKI: 1e-05
PSCL4 PREFETCH  REQUESTED:          0  ISSUED:          0  USEFUL:          0  USELESS:          0
PSCL4 USEFUL LOAD PREFETCHES:          0 PREFETCH ISSUED TO LOWER LEVEL:          0  ACCURACY: -nan
PSCL4 TIMELY PREFETCHES:          0 LATE PREFETCHES: 0 DROPPED PREFETCHES: 0
PSCL4 PREFETCHES SAME FILL-ORIGIN LEVEL: 0 DIFFERENT FILL-ORIGIN LEVEL: 0

PSCL3 TOTAL     ACCESS:      32322  HIT:      32305  MISS:         17  HIT %:    99.9474  MISS %:  0.0525958   MPKI: 0.00017
PSCL3 LOAD TRANSLATION ACCESS:      32322  HIT:      32305  MISS:         17  HIT %:    99.9474  MISS %:  0.0525958   MPKI: 0.00017
PSCL3 PREFETCH  REQUESTED:          0  ISSUED:          0  USEFUL:          0  USELESS:          0
PSCL3 USEFUL LOAD PREFETCHES:          0 PREFETCH ISSUED TO LOWER LEVEL:          0  ACCURACY: -nan
PSCL3 TIMELY PREFETCHES:          0 LATE PREFETCHES: 0 DROPPED PREFETCHES: 0
PSCL3 PREFETCHES SAME FILL-ORIGIN LEVEL: 0 DIFFERENT FILL-ORIGIN LEVEL: 0

PSCL2 TOTAL     ACCESS:      32342  HIT:      32257  MISS:         85  HIT %:    99.7372  MISS %:   0.262816   MPKI: 0.00085
PSCL2 LOAD TRANSLATION ACCESS:      32342  HIT:      32257  MISS:         85  HIT %:    99.7372  MISS %:   0.262816   MPKI: 0.00085
PSCL2 PREFETCH  REQUESTED:          0  ISSUED:          0  USEFUL:          0  USELESS:          0
PSCL2 USEFUL LOAD PREFETCHES:          0 PREFETCH ISSUED TO LOWER LEVEL:          0  ACCURACY: -nan
PSCL2 TIMELY PREFETCHES:          0 LATE PREFETCHES: 0 DROPPED PREFETCHES: 0
PSCL2 PREFETCHES SAME FILL-ORIGIN LEVEL: 0 DIFFERENT FILL-ORIGIN LEVEL: 0

LLC TOTAL     ACCESS:    1861994  HIT:     152439  MISS:    1709555  HIT %:    8.18687  MISS %:    91.8131   MPKI: 17.0955
LLC LOAD      ACCESS:    1607862  HIT:       3533  MISS:    1604329  HIT %:   0.219733  MISS %:    99.7803   MPKI: 16.0433
LLC RFO       ACCESS:     100147  HIT:        561  MISS:      99586  HIT %:   0.560177  MISS %:    99.4398   MPKI: 0.99586
LLC WRITEBACK ACCESS:     148582  HIT:     148226  MISS:        356  HIT %:    99.7604  MISS %:   0.239598   MPKI: 0.00356
LLC LOAD TRANSLATION ACCESS:       5403  HIT:        119  MISS:       5284  HIT %:    2.20248  MISS %:    97.7975   MPKI: 0.05284
LLC PREFETCH  REQUESTED:          0  ISSUED:          0  USEFUL:          0  USELESS:          0
LLC USEFUL LOAD PREFETCHES:          0 PREFETCH ISSUED TO LOWER LEVEL:          0  ACCURACY: -nan
LLC TIMELY PREFETCHES:          0 LATE PREFETCHES: 0 DROPPED PREFETCHES: 0
LLC PREFETCHES SAME FILL-ORIGIN LEVEL: 0 DIFFERENT FILL-ORIGIN LEVEL: 0
LLC AVERAGE MISS LATENCY: 113.816 cycles
LLC RQ	ACCESS:    1713412	FORWARD:          0	MERGED:          0	TO_CACHE:    1713412
LLC WQ	ACCESS:     148582	FORWARD:          0	MERGED:          0	TO_CACHE:     148582

LLC Dense regions hint to LLC: 0

RAW hits: 686200
Loads Generated: 35072096
Loads sent to L1D: 34385896
Stores Generated: 16417674
Stores sent to L1D: 16417695
Major fault: 0 Minor fault: 8046
Allocated PAGES: 8046

DRAM Statistics
 CHANNEL 0
 RQ ROW_BUFFER_HIT:    1101893  ROW_BUFFER_MISS:     607301
 DBUS_CONGESTED:       1332
 WQ ROW_BUFFER_HIT:      67771  ROW_BUFFER_MISS:      81784  FULL:          0

 AVG_CONGESTED_CYCLE: 3
 All warmup complete: 2
Channel 0 Bank busy for read cycles: 0
Channel 0 Bank busy for write cycles: 0
Channel 0
Rank 0
0banks busy for read cycles: 170295392
0banks busy for write cycles: 57101
1banks busy for read cycles: 50804420
1banks busy for write cycles: 11363737
2banks busy for read cycles: 26519137
2banks busy for write cycles: 3214166
3banks busy for read cycles: 13566169
3banks busy for write cycles: 2101415
4banks busy for read cycles: 237441
4banks busy for write cycles: 1628700
5banks busy for read cycles: 84673
5banks busy for write cycles: 1311331
6banks busy for read cycles: 38267
6banks busy for write cycles: 1117646
7banks busy for read cycles: 5941
7banks busy for write cycles: 1563943
8banks busy for read cycles: 1381
8banks busy for write cycles: 5609145

CPU 0 Branch Prediction Accuracy: 92.5482% MPKI: 7.61435 Average ROB Occupancy at Mispredict: 24.2688
Branch types
NOT_BRANCH: 89781515 89.7815%
BRANCH_DIRECT_JUMP: 277177 0.277177%
BRANCH_INDIRECT: 2334 0.002334%
BRANCH_CONDITIONAL: 8735188 8.73519%
BRANCH_DIRECT_CALL: 600365 0.600365%
BRANCH_INDIRECT_CALL: 1358 0.001358%
BRANCH_RETURN: 601722 0.601722%
BRANCH_OTHER: 0 0%

DRAM PAGES: 1048576
Allocated PAGES: 8046
